REMARK  8 active torsions:
REMARK  status: ('A' for Active; 'I' for Inactive)
REMARK    1  A    between atoms: C3_6  and  N2_13 
REMARK    2  A    between atoms: C10_15  and  N2_13 
REMARK    3  A    between atoms: C10_15  and  C11_16 
REMARK    4  A    between atoms: C11_16  and  C12_17 
REMARK    5  A    between atoms: C12_17  and  C13_18 
REMARK    6  A    between atoms: C13_18  and  N3_19 
REMARK    7  A    between atoms: C14_20  and  N3_19 
REMARK    8  A    between atoms: C16_22  and  N3_19 
ROOT
HETATM    1 CL   CLQ A1203      -9.045  -9.825  31.182  1.00 39.57    -0.084 Cl
HETATM    2  N1  CLQ A1203      -9.743  -7.439  35.774  1.00 44.35    -0.365 N 
ATOM      3  H1  CLQ A1203     -10.756  -7.471  35.663  1.00  0.00     0.165 HD
HETATM    4  C1  CLQ A1203      -9.194  -6.876  36.888  1.00 41.00     0.090 A 
HETATM    5  C2  CLQ A1203      -7.804  -6.797  37.080  1.00 40.12     0.047 A 
HETATM    6  C3  CLQ A1203      -7.017  -7.342  36.106  1.00 44.04     0.042 A 
HETATM    7  C4  CLQ A1203      -7.582  -7.917  34.967  1.00 39.82     0.017 A 
HETATM    8  C5  CLQ A1203      -6.705  -8.441  34.004  1.00 32.46     0.018 A 
HETATM    9  C6  CLQ A1203      -7.200  -9.026  32.859  1.00 33.21     0.025 A 
HETATM   10  C7  CLQ A1203      -8.581  -9.064  32.710  1.00 33.69     0.036 A 
HETATM   11  C8  CLQ A1203      -9.480  -8.560  33.654  1.00 38.53     0.054 A 
HETATM   12  C9  CLQ A1203      -8.932  -7.959  34.810  1.00 45.60     0.046 A 
ENDROOT
BRANCH   6  13
HETATM   13  N2  CLQ A1203      -5.541  -7.239  36.383  1.00 45.39    -0.385 N 
ATOM     14  H2  CLQ A1203      -4.878  -7.609  35.702  1.00  0.00     0.160 HD
BRANCH  13  15
HETATM   15  C10 CLQ A1203      -5.034  -6.616  37.617  1.00 45.30     0.077 C 
HETATM   16  C18 CLQ A1203      -3.967  -5.576  37.296  1.00 40.35     0.032 C 
BRANCH  15  17
HETATM   17  C11 CLQ A1203      -4.336  -7.599  38.576  1.00 49.37     0.026 C 
BRANCH  17  18
HETATM   18  C12 CLQ A1203      -3.846  -8.855  37.792  1.00 51.02     0.021 C 
BRANCH  18  19
HETATM   19  C13 CLQ A1203      -4.778  -9.965  38.336  1.00 50.75     0.117 C 
BRANCH  19  20
HETATM   20  N3  CLQ A1203      -4.064 -11.053  39.085  1.00 52.88    -0.413 N 
BRANCH  20  21
HETATM   21  C14 CLQ A1203      -4.596 -11.286  40.440  1.00 57.22     0.112 C 
HETATM   22  C15 CLQ A1203      -4.438  -9.986  41.251  1.00 60.92     0.026 C 
ENDBRANCH  20  21
BRANCH  20  23
HETATM   23  C16 CLQ A1203      -2.582 -11.089  39.016  1.00 49.94     0.112 C 
HETATM   24  C17 CLQ A1203      -2.133 -12.552  38.920  1.00 44.41     0.026 C 
ENDBRANCH  20  23
ENDBRANCH  19  20
ENDBRANCH  18  19
ENDBRANCH  17  18
ENDBRANCH  15  17
ENDBRANCH  13  15
ENDBRANCH   6  13
TORSDOF 8
