REMARK  11 active torsions:
REMARK  status: ('A' for Active; 'I' for Inactive)
REMARK    1  A    between atoms: O3B_8  and  PG_1 
REMARK    2  A    between atoms: O3A_12  and  PB_5 
REMARK    3  A    between atoms: O3B_8  and  PB_5 
REMARK    4  A    between atoms: O3A_12  and  PA_9 
REMARK    5  A    between atoms: O5'_13  and  PA_9 
REMARK    6  A    between atoms: C5'_14  and  O5'_13 
REMARK    7  A    between atoms: C4'_15  and  C5'_14 
REMARK    8  A    between atoms: C3'_17  and  O3'_18 
REMARK    9  A    between atoms: C2'_19  and  O2'_20 
REMARK   10  A    between atoms: C1'_21  and  N9_22 
REMARK   11  A    between atoms: C6_26  and  N6_27 
ROOT
HETATM    1  C4' ATP E 355      11.520  -3.022  -2.595  1.00 15.72     0.180 C 
HETATM    2  O4' ATP E 355      11.427  -1.580  -2.716  1.00 30.04    -0.353 OA
HETATM    3  C3' ATP E 355      10.252  -3.347  -1.834  1.00  9.26     0.182 C 
HETATM    4  C2' ATP E 355      10.251  -2.221  -0.782  1.00  1.00     0.198 C 
HETATM    5  C1' ATP E 355      10.759  -1.048  -1.569  1.00 12.71     0.262 C 
ENDROOT
BRANCH   1   6
HETATM    6  C5' ATP E 355      11.675  -3.607  -3.994  1.00 58.54     0.216 C 
BRANCH   6   7
HETATM    7  O5' ATP E 355      10.839  -2.962  -4.987  1.00 14.92    -0.287 OA
BRANCH   7   8
HETATM    8  PA  ATP E 355      10.009  -3.997  -5.872  1.00 19.49     0.417 P 
HETATM    9  O1A ATP E 355       8.996  -3.366  -6.708  1.00 13.47    -0.624 OA
HETATM   10  O2A ATP E 355       9.486  -5.067  -4.985  1.00 25.00    -0.624 OA
BRANCH   8  11
HETATM   11  O3A ATP E 355      11.147  -4.603  -6.828  1.00 21.72    -0.180 OA
BRANCH  11  12
HETATM   12  PB  ATP E 355      11.106  -5.867  -7.744  1.00 22.96     0.428 P 
HETATM   13  O1B ATP E 355       9.804  -5.840  -8.394  1.00 13.08    -0.624 OA
HETATM   14  O2B ATP E 355      12.315  -5.944  -8.611  1.00 19.59    -0.624 OA
BRANCH  12  15
HETATM   15  O3B ATP E 355      11.058  -7.020  -6.654  1.00 13.80    -0.173 OA
BRANCH  15  16
HETATM   16  PG  ATP E 355      10.550  -8.560  -6.584  1.00 18.11     0.431 P 
HETATM   17  O1G ATP E 355      11.737  -9.426  -6.604  1.00 17.95    -0.616 OA
HETATM   18  O2G ATP E 355       9.679  -8.809  -5.367  1.00 15.57    -0.616 OA
HETATM   19  O3G ATP E 355       9.756  -8.789  -7.751  1.00  6.59    -0.616 OA
ENDBRANCH  15  16
ENDBRANCH  12  15
ENDBRANCH  11  12
ENDBRANCH   8  11
ENDBRANCH   7   8
ENDBRANCH   6   7
ENDBRANCH   1   6
BRANCH   3  20
HETATM   20  O3' ATP E 355      10.225  -4.659  -1.306  1.00 33.78    -0.390 OA
HETATM   21 'HO3 ATP E 355       9.398  -4.800  -0.838  1.00  0.00     0.210 HD
ENDBRANCH   3  20
BRANCH   4  22
HETATM   22  O2' ATP E 355      11.095  -2.442   0.333  1.00 48.53    -0.388 OA
HETATM   23 'HO2 ATP E 355      10.770  -3.192   0.837  1.00  0.00     0.210 HD
ENDBRANCH   4  22
BRANCH   5  24
HETATM   24  N9  ATP E 355       9.704  -0.125  -2.038  1.00 19.15    -0.294 N 
HETATM   25  C4  ATP E 355       9.120   1.010  -1.516  1.00 37.89     0.167 C 
HETATM   26  C5  ATP E 355       8.255   1.482  -2.506  1.00 24.00     0.149 C 
HETATM   27  N3  ATP E 355       9.553   1.720  -0.438  1.00 18.18    -0.222 NA
HETATM   28  N7  ATP E 355       8.168   0.565  -3.527  1.00 35.77    -0.236 NA
HETATM   29  C6  ATP E 355       7.582   2.711  -2.253  1.00 26.67     0.155 C 
HETATM   30  C8  ATP E 355       9.063  -0.347  -3.219  1.00 45.84     0.214 C 
HETATM   31  N1  ATP E 355       7.872   3.336  -1.092  1.00 19.73    -0.222 NA
HETATM   32  C2  ATP E 355       8.844   2.837  -0.285  1.00 28.79     0.237 C 
BRANCH  29  33
HETATM   33  N6  ATP E 355       6.616   3.227  -3.042  1.00 31.35    -0.382 N 
HETATM   34 1HN6 ATP E 355       6.355   2.754  -3.895  1.00  0.00     0.157 HD
HETATM   35 2HN6 ATP E 355       6.154   4.085  -2.778  1.00  0.00     0.157 HD
ENDBRANCH  29  33
ENDBRANCH   5  24
TORSDOF 11
