REMARK  5 active torsions:
REMARK  status: ('A' for Active; 'I' for Inactive)
REMARK    1  A    between atoms: C2_2  and  N1_22 
REMARK       I    between atoms: C3_3  and  N2_24 
REMARK       I    between atoms: C3_3  and  N1_22 
REMARK    2  A    between atoms: C13_7  and  C15_9 
REMARK    3  A    between atoms: C15_9  and  C18_12 
REMARK    4  A    between atoms: C10_17  and  C9_18 
REMARK    5  A    between atoms: C7_25  and  C8_26 
REMARK       I    between atoms: C8_26  and  N3_27 
ROOT
HETATM    1  C1  1LT A1102      -0.275   8.367  16.103  1.00 29.48     0.051 A 
HETATM    2  C2  1LT A1102      -0.804   8.225  13.959  1.00 31.21     0.175 A 
HETATM    3  C9  1LT A1102      -1.306   7.440  16.220  1.00 30.21     0.043 A 
HETATM    4  C   1LT A1102       0.532   8.928  17.228  1.00 29.25     0.072 C 
HETATM    5  S   1LT A1102      -1.929   7.095  14.624  1.00 30.69    -0.049 SA
HETATM    6  N   1LT A1102      -0.009   8.805  14.821  1.00 31.52    -0.228 NA
ENDROOT
BRANCH   2   7
HETATM    7  N1  1LT A1102      -0.718   8.527  12.613  1.00 32.80    -0.287 N 
HETATM    8  C3  1LT A1102      -1.503   7.929  11.615  1.00 30.89     0.325 C 
HETATM    9  O   1LT A1102      -2.347   7.086  11.880  1.00 28.68    -0.247 OA
HETATM   10  N2  1LT A1102      -1.286   8.332  10.312  1.00 31.78    -0.320 N 
HETATM   11  C4  1LT A1102      -0.316   9.327   9.830  1.00 31.75     0.129 C 
HETATM   12  C7  1LT A1102      -2.086   7.751   9.220  1.00 33.94     0.180 C 
HETATM   13  C5  1LT A1102      -0.262   9.077   8.339  1.00 33.06     0.022 C 
HETATM   14  C6  1LT A1102      -1.619   8.522   7.975  1.00 32.91     0.037 C 
HETATM   15  H1  1LT A1102      -0.045   9.224  12.329  1.00  0.00     0.172 HD
BRANCH  12  16
HETATM   16  C8  1LT A1102      -1.904   6.240   9.066  1.00 36.23     0.238 C 
HETATM   17  N3  1LT A1102      -0.710   5.752   9.362  1.00 38.59    -0.368 N 
HETATM   18  H31 1LT A1102       0.034   6.374   9.645  1.00  0.00     0.159 HD
HETATM   19  H32 1LT A1102      -0.542   4.758   9.304  1.00  0.00     0.159 HD
HETATM   20  O1  1LT A1102      -2.860   5.528   8.745  1.00 36.45    -0.271 OA
ENDBRANCH  12  16
ENDBRANCH   2   7
BRANCH   3  21
HETATM   21  C10 1LT A1102      -1.926   6.714  17.351  1.00 28.09    -0.014 A 
HETATM   22  C14 1LT A1102      -3.114   6.018  17.158  1.00 28.89     0.041 A 
HETATM   23  C13 1LT A1102      -3.675   5.340  18.250  1.00 31.46     0.051 A 
HETATM   24  N4  1LT A1102      -3.107   5.324  19.463  1.00 28.32    -0.264 NA
HETATM   25  C12 1LT A1102      -1.974   6.022  19.628  1.00 27.11     0.118 A 
HETATM   26  C11 1LT A1102      -1.360   6.733  18.621  1.00 28.02     0.032 A 
BRANCH  23  27
HETATM   27  C15 1LT A1102      -5.030   4.601  18.124  1.00 36.92     0.095 C 
HETATM   28  C17 1LT A1102      -4.922   3.189  18.725  1.00 34.98     0.031 C 
HETATM   29  C16 1LT A1102      -5.478   4.507  16.657  1.00 37.10     0.031 C 
BRANCH  27  30
HETATM   30  C18 1LT A1102      -6.189   5.414  18.936  1.00 41.31     0.400 C 
HETATM   31  F   1LT A1102      -5.943   5.507  20.238  1.00 43.09    -0.170 F 
HETATM   32  F1  1LT A1102      -6.330   6.657  18.490  1.00 42.86    -0.170 F 
HETATM   33  F2  1LT A1102      -7.366   4.803  18.805  1.00 40.44    -0.170 F 
ENDBRANCH  27  30
ENDBRANCH  23  27
ENDBRANCH   3  21
TORSDOF 5
