REMARK  5 active torsions:
REMARK  status: ('A' for Active; 'I' for Inactive)
REMARK    1  A    between atoms: C2_2  and  N1_22 
REMARK       I    between atoms: C3_3  and  N2_24 
REMARK       I    between atoms: C3_3  and  N1_22 
REMARK    2  A    between atoms: C13_7  and  C15_9 
REMARK    3  A    between atoms: C15_9  and  C18_12 
REMARK    4  A    between atoms: C10_17  and  C9_18 
REMARK    5  A    between atoms: C7_25  and  C8_26 
REMARK       I    between atoms: C8_26  and  N3_27 
ROOT
HETATM    1  C1  1LT A1102       8.622  -2.790  16.759  1.00 29.48     0.051 A 
HETATM    2  C2  1LT A1102       8.901  -3.173  14.598  1.00 31.21     0.175 A 
HETATM    3  C9  1LT A1102       9.824  -2.108  16.597  1.00 30.21     0.043 A 
HETATM    4  C   1LT A1102       7.865  -2.939  18.039  1.00 29.25     0.072 C 
HETATM    5  S   1LT A1102      10.301  -2.214  14.919  1.00 30.69    -0.049 SA
HETATM    6  N   1LT A1102       8.118  -3.392  15.624  1.00 31.52    -0.228 NA
ENDROOT
BRANCH   2   7
HETATM    7  N1  1LT A1102       8.591  -3.695  13.356  1.00 32.80    -0.287 N 
HETATM    8  C3  1LT A1102       9.350  -3.483  12.196  1.00 30.89     0.325 C 
HETATM    9  N2  1LT A1102       8.898  -4.065  11.027  1.00 31.78    -0.320 N 
HETATM   10  O   1LT A1102      10.371  -2.812  12.209  1.00 28.68    -0.247 OA
HETATM   11  C4  1LT A1102       7.697  -4.895  10.844  1.00 31.75     0.129 C 
HETATM   12  C7  1LT A1102       9.657  -3.890   9.777  1.00 33.94     0.180 C 
HETATM   13  C5  1LT A1102       7.511  -4.923   9.343  1.00 33.06     0.022 C 
HETATM   14  C6  1LT A1102       8.896  -4.759   8.763  1.00 32.91     0.037 C 
HETATM   15  H1  1LT A1102       7.763  -4.268  13.279  1.00  0.00     0.172 HD
BRANCH  12  16
HETATM   16  C8  1LT A1102       9.763  -2.432   9.325  1.00 36.23     0.238 C 
HETATM   17  O1  1LT A1102      10.795  -2.021   8.787  1.00 36.45    -0.271 OA
HETATM   18  N3  1LT A1102       8.736  -1.647   9.608  1.00 38.59    -0.368 N 
HETATM   19  H31 1LT A1102       8.764  -0.669   9.357  1.00  0.00     0.159 HD
HETATM   20  H32 1LT A1102       7.924  -2.025  10.074  1.00  0.00     0.159 HD
ENDBRANCH  12  16
ENDBRANCH   2   7
BRANCH   3  21
HETATM   21  C10 1LT A1102      10.710  -1.338  17.497  1.00 28.09    -0.014 A 
HETATM   22  C11 1LT A1102      10.313  -0.994  18.784  1.00 28.02     0.032 A 
HETATM   23  C12 1LT A1102      11.177  -0.259  19.567  1.00 27.11     0.118 A 
HETATM   24  N4  1LT A1102      12.396   0.129  19.169  1.00 28.32    -0.264 NA
HETATM   25  C13 1LT A1102      12.796  -0.240  17.944  1.00 31.46     0.051 A 
HETATM   26  C14 1LT A1102      11.981  -0.969  17.067  1.00 28.89     0.041 A 
BRANCH  25  27
HETATM   27  C15 1LT A1102      14.245   0.146  17.558  1.00 36.92     0.095 C 
HETATM   28  C16 1LT A1102      14.519  -0.137  16.072  1.00 37.10     0.031 C 
HETATM   29  C17 1LT A1102      14.496   1.634  17.856  1.00 34.98     0.031 C 
BRANCH  27  30
HETATM   30  C18 1LT A1102      15.310  -0.735  18.426  1.00 41.31     0.400 C 
HETATM   31  F2  1LT A1102      16.560  -0.434  18.075  1.00 40.44    -0.170 F 
HETATM   32  F   1LT A1102      15.212  -0.526  19.733  1.00 43.09    -0.170 F 
HETATM   33  F1  1LT A1102      15.144  -2.039  18.240  1.00 42.86    -0.170 F 
ENDBRANCH  27  30
ENDBRANCH  25  27
ENDBRANCH   3  21
TORSDOF 5
