REMARK  11 active torsions:
REMARK  status: ('A' for Active; 'I' for Inactive)
REMARK    1  A    between atoms: O3B_8  and  PG_1 
REMARK    2  A    between atoms: O3A_12  and  PB_5 
REMARK    3  A    between atoms: O3B_8  and  PB_5 
REMARK    4  A    between atoms: O3A_12  and  PA_9 
REMARK    5  A    between atoms: O5'_13  and  PA_9 
REMARK    6  A    between atoms: C5'_14  and  O5'_13 
REMARK    7  A    between atoms: C4'_15  and  C5'_14 
REMARK    8  A    between atoms: C3'_17  and  O3'_18 
REMARK    9  A    between atoms: C2'_19  and  O2'_20 
REMARK   10  A    between atoms: C1'_21  and  N9_22 
REMARK   11  A    between atoms: C6_26  and  N6_27 
ROOT
HETATM    1  C4' ATP E 355      13.497   5.913  -3.381  1.00 15.72     0.180 C 
HETATM    2  O4' ATP E 355      12.718   7.071  -2.988  1.00 30.04    -0.353 OA
HETATM    3  C3' ATP E 355      12.653   4.778  -2.839  1.00  9.26     0.182 C 
HETATM    4  C2' ATP E 355      12.266   5.342  -1.458  1.00  1.00     0.198 C 
HETATM    5  C1' ATP E 355      12.045   6.796  -1.757  1.00 12.71     0.262 C 
ENDROOT
BRANCH   1   6
HETATM    6  C5' ATP E 355      13.714   5.976  -4.888  1.00 58.54     0.216 C 
BRANCH   6   7
HETATM    7  O5' ATP E 355      12.543   6.412  -5.624  1.00 14.92    -0.287 OA
BRANCH   7   8
HETATM    8  PA  ATP E 355      12.187   5.460  -6.852  1.00 19.49     0.417 P 
HETATM    9  O1A ATP E 355      10.891   5.746  -7.453  1.00 13.47    -0.624 OA
HETATM   10  O2A ATP E 355      12.361   4.048  -6.424  1.00 25.00    -0.624 OA
BRANCH   8  11
HETATM   11  O3A ATP E 355      13.330   5.843  -7.912  1.00 21.72    -0.180 OA
BRANCH  11  12
HETATM   12  PB  ATP E 355      13.764   5.102  -9.216  1.00 22.96     0.428 P 
HETATM   13  O1B ATP E 355      12.528   4.699  -9.870  1.00 13.08    -0.624 OA
HETATM   14  O2B ATP E 355      14.732   5.918 -10.003  1.00 19.59    -0.624 OA
BRANCH  12  15
HETATM   15  O3B ATP E 355      14.420   3.791  -8.608  1.00 13.80    -0.173 OA
BRANCH  15  16
HETATM   16  PG  ATP E 355      14.715   2.276  -9.109  1.00 18.11     0.431 P 
HETATM   17  O1G ATP E 355      16.155   2.165  -9.383  1.00 17.95    -0.616 OA
HETATM   18  O2G ATP E 355      14.244   1.248  -8.097  1.00 15.57    -0.616 OA
HETATM   19  O3G ATP E 355      13.970   2.084 -10.314  1.00  6.59    -0.616 OA
ENDBRANCH  15  16
ENDBRANCH  12  15
ENDBRANCH  11  12
ENDBRANCH   8  11
ENDBRANCH   7   8
ENDBRANCH   6   7
ENDBRANCH   1   6
BRANCH   3  20
HETATM   20  O3' ATP E 355      13.324   3.533  -2.811  1.00 33.78    -0.390 OA
HETATM   21 'HO3 ATP E 355      12.736   2.860  -2.459  1.00  0.00     0.210 HD
ENDBRANCH   3  20
BRANCH   4  22
HETATM   22  O2' ATP E 355      13.261   5.212  -0.458  1.00 48.53    -0.388 OA
HETATM   23 'HO2 ATP E 355      13.403   4.282  -0.267  1.00  0.00     0.210 HD
ENDBRANCH   4  22
BRANCH   5  24
HETATM   24  N9  ATP E 355      10.625   7.177  -1.914  1.00 19.15    -0.294 N 
HETATM   25  C4  ATP E 355       9.654   7.636  -1.049  1.00 37.89     0.167 C 
HETATM   26  C5  ATP E 355       8.540   7.917  -1.844  1.00 24.00     0.149 C 
HETATM   27  N3  ATP E 355       9.845   8.068   0.228  1.00 18.18    -0.222 NA
HETATM   28  N7  ATP E 355       8.756   7.469  -3.126  1.00 35.77    -0.236 NA
HETATM   29  C6  ATP E 355       7.409   8.496  -1.202  1.00 26.67     0.155 C 
HETATM   30  C8  ATP E 355      10.008   7.071  -3.123  1.00 45.84     0.214 C 
HETATM   31  N1  ATP E 355       7.527   8.762   0.117  1.00 19.73    -0.222 NA
HETATM   32  C2  ATP E 355       8.721   8.571   0.736  1.00 28.79     0.237 C 
BRANCH  29  33
HETATM   33  N6  ATP E 355       6.215   8.696  -1.797  1.00 31.35    -0.382 N 
HETATM   34 1HN6 ATP E 355       6.092   8.467  -2.773  1.00  0.00     0.157 HD
HETATM   35 2HN6 ATP E 355       5.444   9.077  -1.267  1.00  0.00     0.157 HD
ENDBRANCH  29  33
ENDBRANCH   5  24
TORSDOF 11
