REMARK  5 active torsions:
REMARK  status: ('A' for Active; 'I' for Inactive)
REMARK    1  A    between atoms: C2_2  and  N1_22 
REMARK       I    between atoms: C3_3  and  N1_22 
REMARK       I    between atoms: C3_3  and  N2_24 
REMARK    2  A    between atoms: C13_7  and  C15_9 
REMARK    3  A    between atoms: C15_9  and  C18_12 
REMARK    4  A    between atoms: C10_17  and  C9_18 
REMARK    5  A    between atoms: C7_25  and  C8_26 
REMARK       I    between atoms: C8_26  and  N3_27 
ROOT
HETATM    1  C1  1LT A1102      20.253  -9.352  13.292  1.00 29.48     0.051 A 
HETATM    2  C2  1LT A1102      19.170  -8.249  11.709  1.00 31.21     0.175 A 
HETATM    3  C9  1LT A1102      21.236  -8.409  13.007  1.00 30.21     0.043 A 
HETATM    4  C   1LT A1102      20.357 -10.450  14.300  1.00 29.25     0.072 C 
HETATM    5  S   1LT A1102      20.637  -7.338  11.764  1.00 30.69    -0.049 SA
HETATM    6  N   1LT A1102      19.096  -9.252  12.546  1.00 31.52    -0.228 NA
ENDROOT
BRANCH   2   7
HETATM    7  N1  1LT A1102      18.121  -7.972  10.853  1.00 32.80    -0.287 N 
HETATM    8  C3  1LT A1102      18.097  -6.898   9.950  1.00 30.89     0.325 C 
HETATM    9  O   1LT A1102      19.035  -6.121   9.851  1.00 28.68    -0.247 OA
HETATM   10  N2  1LT A1102      16.966  -6.749   9.171  1.00 31.78    -0.320 N 
HETATM   11  C4  1LT A1102      15.760  -7.592   9.169  1.00 31.75     0.129 C 
HETATM   12  C7  1LT A1102      16.885  -5.649   8.195  1.00 33.94     0.180 C 
HETATM   13  C5  1LT A1102      14.744  -6.755   8.425  1.00 33.06     0.022 C 
HETATM   14  C6  1LT A1102      15.548  -5.894   7.479  1.00 32.91     0.037 C 
HETATM   15  H1  1LT A1102      17.318  -8.583  10.879  1.00  0.00     0.172 HD
BRANCH  12  16
HETATM   16  C8  1LT A1102      16.954  -4.260   8.832  1.00 36.23     0.238 C 
HETATM   17  O1  1LT A1102      17.539  -3.339   8.256  1.00 36.45    -0.271 OA
HETATM   18  N3  1LT A1102      16.425  -4.134  10.039  1.00 38.59    -0.368 N 
HETATM   19  H31 1LT A1102      16.467  -3.246  10.518  1.00  0.00     0.159 HD
HETATM   20  H32 1LT A1102      15.979  -4.925  10.480  1.00  0.00     0.159 HD
ENDBRANCH  12  16
ENDBRANCH   2   7
BRANCH   3  21
HETATM   21  C10 1LT A1102      22.593  -8.133  13.531  1.00 28.09    -0.014 A 
HETATM   22  C11 1LT A1102      23.072  -8.768  14.672  1.00 28.02     0.032 A 
HETATM   23  C12 1LT A1102      24.336  -8.455  15.120  1.00 27.11     0.118 A 
HETATM   24  N4  1LT A1102      25.149  -7.583  14.506  1.00 28.32    -0.264 NA
HETATM   25  C13 1LT A1102      24.704  -7.003  13.383  1.00 31.46     0.051 A 
HETATM   26  C14 1LT A1102      23.425  -7.243  12.860  1.00 28.89     0.041 A 
BRANCH  25  27
HETATM   27  C15 1LT A1102      25.707  -6.077  12.653  1.00 36.92     0.095 C 
HETATM   28  C17 1LT A1102      26.328  -5.080  13.646  1.00 34.98     0.031 C 
HETATM   29  C16 1LT A1102      25.025  -5.311  11.508  1.00 37.10     0.031 C 
BRANCH  27  30
HETATM   30  C18 1LT A1102      26.912  -6.961  11.997  1.00 41.31     0.400 C 
HETATM   31  F   1LT A1102      27.620  -7.625  12.903  1.00 43.09    -0.170 F 
HETATM   32  F1  1LT A1102      26.454  -7.866  11.139  1.00 42.86    -0.170 F 
HETATM   33  F2  1LT A1102      27.762  -6.176  11.337  1.00 40.44    -0.170 F 
ENDBRANCH  27  30
ENDBRANCH  25  27
ENDBRANCH   3  21
TORSDOF 5
