REMARK  5 active torsions:
REMARK  status: ('A' for Active; 'I' for Inactive)
REMARK    1  A    between atoms: C2_2  and  N1_22 
REMARK       I    between atoms: C3_3  and  N1_22 
REMARK       I    between atoms: C3_3  and  N2_24 
REMARK    2  A    between atoms: C13_7  and  C15_9 
REMARK    3  A    between atoms: C15_9  and  C18_12 
REMARK    4  A    between atoms: C10_17  and  C9_18 
REMARK    5  A    between atoms: C7_25  and  C8_26 
REMARK       I    between atoms: C8_26  and  N3_27 
ROOT
HETATM    1  C1  1LT A1102       7.003  -6.353  17.505  1.00 29.48     0.051 A 
HETATM    2  C2  1LT A1102       6.645  -6.932  15.400  1.00 31.21     0.175 A 
HETATM    3  C9  1LT A1102       8.276  -6.838  17.220  1.00 30.21     0.043 A 
HETATM    4  C   1LT A1102       6.549  -5.802  18.818  1.00 29.25     0.072 C 
HETATM    5  S   1LT A1102       8.311  -7.363  15.553  1.00 30.69    -0.049 SA
HETATM    6  N   1LT A1102       6.093  -6.420  16.470  1.00 31.52    -0.228 NA
ENDROOT
BRANCH   2   7
HETATM    7  N1  1LT A1102       5.908  -7.102  14.244  1.00 32.80    -0.287 N 
HETATM    8  C3  1LT A1102       6.424  -7.607  13.041  1.00 30.89     0.325 C 
HETATM    9  O   1LT A1102       7.592  -7.951  12.938  1.00 28.68    -0.247 OA
HETATM   10  N2  1LT A1102       5.558  -7.703  11.969  1.00 31.78    -0.320 N 
HETATM   11  C4  1LT A1102       4.134  -7.334  11.930  1.00 31.75     0.129 C 
HETATM   12  C7  1LT A1102       6.036  -8.238  10.683  1.00 33.94     0.180 C 
HETATM   13  C5  1LT A1102       3.819  -7.293  10.451  1.00 33.06     0.022 C 
HETATM   14  C6  1LT A1102       4.772  -8.275   9.810  1.00 32.91     0.037 C 
HETATM   15  H1  1LT A1102       4.931  -6.845  14.266  1.00  0.00     0.172 HD
BRANCH  12  16
HETATM   16  C8  1LT A1102       7.151  -7.402  10.050  1.00 36.23     0.238 C 
HETATM   17  O1  1LT A1102       8.066  -7.953   9.432  1.00 36.45    -0.271 OA
HETATM   18  N3  1LT A1102       7.111  -6.098  10.267  1.00 38.59    -0.368 N 
HETATM   19  H31 1LT A1102       7.838  -5.502   9.897  1.00  0.00     0.159 HD
HETATM   20  H32 1LT A1102       6.355  -5.698  10.804  1.00  0.00     0.159 HD
ENDBRANCH  12  16
ENDBRANCH   2   7
BRANCH   3  21
HETATM   21  C10 1LT A1102       9.534  -6.966  17.988  1.00 28.09    -0.014 A 
HETATM   22  C14 1LT A1102      10.584  -7.720  17.474  1.00 28.89     0.041 A 
HETATM   23  C13 1LT A1102      11.763  -7.821  18.226  1.00 31.46     0.051 A 
HETATM   24  N4  1LT A1102      11.924  -7.211  19.409  1.00 28.32    -0.264 NA
HETATM   25  C12 1LT A1102      10.888  -6.511  19.892  1.00 27.11     0.118 A 
HETATM   26  C11 1LT A1102       9.686  -6.370  19.235  1.00 28.02     0.032 A 
BRANCH  23  27
HETATM   27  C15 1LT A1102      12.946  -8.698  17.748  1.00 36.92     0.095 C 
HETATM   28  C16 1LT A1102      12.738  -9.171  16.300  1.00 37.10     0.031 C 
HETATM   29  C17 1LT A1102      14.265  -7.912  17.851  1.00 34.98     0.031 C 
BRANCH  27  30
HETATM   30  C18 1LT A1102      13.072 -10.030  18.683  1.00 41.31     0.400 C 
HETATM   31  F2  1LT A1102      14.067 -10.807  18.257  1.00 40.44    -0.170 F 
HETATM   32  F   1LT A1102      13.318  -9.748  19.957  1.00 43.09    -0.170 F 
HETATM   33  F1  1LT A1102      11.960 -10.756  18.665  1.00 42.86    -0.170 F 
ENDBRANCH  27  30
ENDBRANCH  23  27
ENDBRANCH   3  21
TORSDOF 5
