REMARK  5 active torsions:
REMARK  status: ('A' for Active; 'I' for Inactive)
REMARK    1  A    between atoms: C2_2  and  N1_22 
REMARK       I    between atoms: C3_3  and  N2_24 
REMARK       I    between atoms: C3_3  and  N1_22 
REMARK    2  A    between atoms: C13_7  and  C15_9 
REMARK    3  A    between atoms: C15_9  and  C18_12 
REMARK    4  A    between atoms: C10_17  and  C9_18 
REMARK    5  A    between atoms: C7_25  and  C8_26 
REMARK       I    between atoms: C8_26  and  N3_27 
ROOT
HETATM    1  C1  1LT A1102     -30.375  46.203  19.730  1.00 29.48     0.051 A 
HETATM    2  C2  1LT A1102     -29.648  44.717  21.199  1.00 31.21     0.175 A 
HETATM    3  C9  1LT A1102     -29.417  46.999  20.351  1.00 30.21     0.043 A 
HETATM    4  C   1LT A1102     -31.275  46.623  18.614  1.00 29.25     0.072 C 
HETATM    5  S   1LT A1102     -28.624  46.053  21.588  1.00 30.69    -0.049 SA
HETATM    6  N   1LT A1102     -30.498  44.920  20.225  1.00 31.52    -0.228 NA
ENDROOT
BRANCH   2   7
HETATM    7  N1  1LT A1102     -29.606  43.498  21.850  1.00 32.80    -0.287 N 
HETATM    8  C3  1LT A1102     -28.706  43.179  22.877  1.00 30.89     0.325 C 
HETATM    9  O   1LT A1102     -27.883  43.985  23.285  1.00 28.68    -0.247 OA
HETATM   10  N2  1LT A1102     -28.784  41.909  23.417  1.00 31.78    -0.320 N 
HETATM   11  C4  1LT A1102     -29.710  40.830  23.041  1.00 31.75     0.129 C 
HETATM   12  C7  1LT A1102     -27.875  41.517  24.507  1.00 33.94     0.180 C 
HETATM   13  C5  1LT A1102     -29.097  39.600  23.674  1.00 33.06     0.022 C 
HETATM   14  C6  1LT A1102     -28.346  40.103  24.885  1.00 32.91     0.037 C 
HETATM   15  H1  1LT A1102     -30.268  42.790  21.566  1.00  0.00     0.172 HD
BRANCH  12  16
HETATM   16  C8  1LT A1102     -26.397  41.548  24.113  1.00 36.23     0.238 C 
HETATM   17  O1  1LT A1102     -25.543  41.903  24.929  1.00 36.45    -0.271 OA
HETATM   18  N3  1LT A1102     -26.112  41.250  22.855  1.00 38.59    -0.368 N 
HETATM   19  H31 1LT A1102     -25.156  41.282  22.533  1.00  0.00     0.159 HD
HETATM   20  H32 1LT A1102     -26.851  40.991  22.218  1.00  0.00     0.159 HD
ENDBRANCH  12  16
ENDBRANCH   2   7
BRANCH   3  21
HETATM   21  C10 1LT A1102     -28.948  48.390  20.169  1.00 28.09    -0.014 A 
HETATM   22  C14 1LT A1102     -28.118  48.970  21.124  1.00 28.89     0.041 A 
HETATM   23  C13 1LT A1102     -27.690  50.290  20.921  1.00 31.46     0.051 A 
HETATM   24  N4  1LT A1102     -28.034  51.007  19.842  1.00 28.32    -0.264 NA
HETATM   25  C12 1LT A1102     -28.852  50.432  18.949  1.00 27.11     0.118 A 
HETATM   26  C11 1LT A1102     -29.339  49.149  19.072  1.00 28.02     0.032 A 
BRANCH  23  27
HETATM   27  C15 1LT A1102     -26.823  51.022  21.973  1.00 36.92     0.095 C 
HETATM   28  C17 1LT A1102     -25.624  51.705  21.292  1.00 34.98     0.031 C 
HETATM   29  C16 1LT A1102     -26.319  50.049  23.052  1.00 37.10     0.031 C 
BRANCH  27  30
HETATM   30  C18 1LT A1102     -27.703  52.171  22.727  1.00 41.31     0.400 C 
HETATM   31  F   1LT A1102     -28.145  53.111  21.900  1.00 43.09    -0.170 F 
HETATM   32  F1  1LT A1102     -28.775  51.663  23.325  1.00 42.86    -0.170 F 
HETATM   33  F2  1LT A1102     -26.974  52.783  23.659  1.00 40.44    -0.170 F 
ENDBRANCH  27  30
ENDBRANCH  23  27
ENDBRANCH   3  21
TORSDOF 5
