REMARK  5 active torsions:
REMARK  status: ('A' for Active; 'I' for Inactive)
REMARK    1  A    between atoms: C2_2  and  N1_22 
REMARK       I    between atoms: C3_3  and  N2_24 
REMARK       I    between atoms: C3_3  and  N1_22 
REMARK    2  A    between atoms: C13_7  and  C15_9 
REMARK    3  A    between atoms: C15_9  and  C18_12 
REMARK    4  A    between atoms: C10_17  and  C9_18 
REMARK    5  A    between atoms: C7_25  and  C8_26 
REMARK       I    between atoms: C8_26  and  N3_27 
ROOT
HETATM    1  C1  1LT A1102       6.188 -12.140  16.029  1.00 29.48     0.051 A 
HETATM    2  C2  1LT A1102       6.758 -10.904  14.285  1.00 31.21     0.175 A 
HETATM    3  C9  1LT A1102       7.255 -11.464  16.613  1.00 30.21     0.043 A 
HETATM    4  C   1LT A1102       5.340 -13.177  16.690  1.00 29.25     0.072 C 
HETATM    5  S   1LT A1102       7.918 -10.352  15.440  1.00 30.69    -0.049 SA
HETATM    6  N   1LT A1102       5.925 -11.817  14.713  1.00 31.52    -0.228 NA
ENDROOT
BRANCH   2   7
HETATM    7  N1  1LT A1102       6.682 -10.439  12.986  1.00 32.80    -0.287 N 
HETATM    8  C3  1LT A1102       7.507  -9.438  12.452  1.00 30.89     0.325 C 
HETATM    9  N2  1LT A1102       7.295  -9.075  11.136  1.00 31.78    -0.320 N 
HETATM   10  O   1LT A1102       8.382  -8.903  13.118  1.00 28.68    -0.247 OA
HETATM   11  C4  1LT A1102       6.292  -9.617  10.207  1.00 31.75     0.129 C 
HETATM   12  C7  1LT A1102       8.137  -8.039  10.514  1.00 33.94     0.180 C 
HETATM   13  C5  1LT A1102       6.273  -8.610   9.078  1.00 33.06     0.022 C 
HETATM   14  C6  1LT A1102       7.659  -8.008   9.054  1.00 32.91     0.037 C 
HETATM   15  H1  1LT A1102       5.985 -10.847  12.380  1.00  0.00     0.172 HD
BRANCH  12  16
HETATM   16  C8  1LT A1102       8.022  -6.671  11.189  1.00 36.23     0.238 C 
HETATM   17  O1  1LT A1102       9.012  -5.941  11.289  1.00 36.45    -0.271 OA
HETATM   18  N3  1LT A1102       6.845  -6.362  11.710  1.00 38.59    -0.368 N 
HETATM   19  H31 1LT A1102       6.720  -5.484  12.192  1.00  0.00     0.159 HD
HETATM   20  H32 1LT A1102       6.071  -7.006  11.625  1.00  0.00     0.159 HD
ENDBRANCH  12  16
ENDBRANCH   2   7
BRANCH   3  21
HETATM   21  C10 1LT A1102       7.886 -11.480  17.951  1.00 28.09    -0.014 A 
HETATM   22  C14 1LT A1102       9.107 -10.841  18.148  1.00 28.89     0.041 A 
HETATM   23  C13 1LT A1102       9.677 -10.874  19.429  1.00 31.46     0.051 A 
HETATM   24  N4  1LT A1102       9.090 -11.480  20.469  1.00 28.32    -0.264 NA
HETATM   25  C12 1LT A1102       7.927 -12.108  20.247  1.00 27.11     0.118 A 
HETATM   26  C11 1LT A1102       7.299 -12.146  19.021  1.00 28.02     0.032 A 
BRANCH  23  27
HETATM   27  C15 1LT A1102      11.064 -10.243  19.704  1.00 36.92     0.095 C 
HETATM   28  C16 1LT A1102      11.540  -9.402  18.508  1.00 37.10     0.031 C 
HETATM   29  C17 1LT A1102      11.006  -9.363  20.965  1.00 34.98     0.031 C 
BRANCH  27  30
HETATM   30  C18 1LT A1102      12.174 -11.413  19.949  1.00 41.31     0.400 C 
HETATM   31  F2  1LT A1102      13.378 -10.880  20.153  1.00 40.44    -0.170 F 
HETATM   32  F   1LT A1102      11.903 -12.174  21.004  1.00 43.09    -0.170 F 
HETATM   33  F1  1LT A1102      12.270 -12.233  18.909  1.00 42.86    -0.170 F 
ENDBRANCH  27  30
ENDBRANCH  23  27
ENDBRANCH   3  21
TORSDOF 5
