REMARK  5 active torsions:
REMARK  status: ('A' for Active; 'I' for Inactive)
REMARK    1  A    between atoms: C2_2  and  N1_22 
REMARK       I    between atoms: C3_3  and  N1_22 
REMARK       I    between atoms: C3_3  and  N2_24 
REMARK    2  A    between atoms: C13_7  and  C15_9 
REMARK    3  A    between atoms: C15_9  and  C18_12 
REMARK    4  A    between atoms: C10_17  and  C9_18 
REMARK    5  A    between atoms: C7_25  and  C8_26 
REMARK       I    between atoms: C8_26  and  N3_27 
ROOT
HETATM    1  C1  1LT A1102       6.225  16.935  82.534  1.00 29.48     0.051 A 
HETATM    2  C2  1LT A1102       7.093  15.303  81.320  1.00 31.21     0.175 A 
HETATM    3  C9  1LT A1102       5.152  16.748  81.668  1.00 30.21     0.043 A 
HETATM    4  C   1LT A1102       6.297  17.943  83.635  1.00 29.25     0.072 C 
HETATM    5  S   1LT A1102       5.547  15.451  80.565  1.00 30.69    -0.049 SA
HETATM    6  N   1LT A1102       7.315  16.117  82.320  1.00 31.52    -0.228 NA
ENDROOT
BRANCH   2   7
HETATM    7  N1  1LT A1102       8.061  14.399  80.924  1.00 32.80    -0.287 N 
HETATM    8  C3  1LT A1102       7.898  13.465  79.889  1.00 30.89     0.325 C 
HETATM    9  O   1LT A1102       6.863  13.396  79.243  1.00 28.68    -0.247 OA
HETATM   10  N2  1LT A1102       8.959  12.620  79.624  1.00 31.78    -0.320 N 
HETATM   11  C4  1LT A1102      10.262  12.576  80.305  1.00 31.75     0.129 C 
HETATM   12  C7  1LT A1102       8.855  11.627  78.542  1.00 33.94     0.180 C 
HETATM   13  C5  1LT A1102      10.846  11.251  79.867  1.00 33.06     0.022 C 
HETATM   14  C6  1LT A1102      10.247  10.979  78.507  1.00 32.91     0.037 C 
HETATM   15  H1  1LT A1102       8.945  14.411  81.413  1.00  0.00     0.172 HD
BRANCH  12  16
HETATM   16  C8  1LT A1102       7.743  10.599  78.761  1.00 36.23     0.238 C 
HETATM   17  O1  1LT A1102       7.093  10.173  77.802  1.00 36.45    -0.271 OA
HETATM   18  N3  1LT A1102       7.484  10.262  80.014  1.00 38.59    -0.368 N 
HETATM   19  H31 1LT A1102       6.741   9.609  80.218  1.00  0.00     0.159 HD
HETATM   20  H32 1LT A1102       8.028  10.660  80.766  1.00  0.00     0.159 HD
ENDBRANCH  12  16
ENDBRANCH   2   7
BRANCH   3  21
HETATM   21  C10 1LT A1102       3.818  17.371  81.518  1.00 28.09    -0.014 A 
HETATM   22  C11 1LT A1102       3.312  18.240  82.478  1.00 28.02     0.032 A 
HETATM   23  C12 1LT A1102       2.056  18.773  82.290  1.00 27.11     0.118 A 
HETATM   24  N4  1LT A1102       1.292  18.520  81.218  1.00 28.32    -0.264 NA
HETATM   25  C13 1LT A1102       1.797  17.716  80.272  1.00 31.46     0.051 A 
HETATM   26  C14 1LT A1102       3.057  17.110  80.383  1.00 28.89     0.041 A 
BRANCH  25  27
HETATM   27  C15 1LT A1102       0.925  17.524  79.007  1.00 36.92     0.095 C 
HETATM   28  C16 1LT A1102       1.500  16.428  78.095  1.00 37.10     0.031 C 
HETATM   29  C17 1LT A1102      -0.517  17.162  79.406  1.00 34.98     0.031 C 
BRANCH  27  30
HETATM   30  C18 1LT A1102       0.882  18.906  78.140  1.00 41.31     0.400 C 
HETATM   31  F   1LT A1102       0.342  19.920  78.806  1.00 43.09    -0.170 F 
HETATM   32  F2  1LT A1102       0.162  18.741  77.032  1.00 40.44    -0.170 F 
HETATM   33  F1  1LT A1102       2.096  19.300  77.774  1.00 42.86    -0.170 F 
ENDBRANCH  27  30
ENDBRANCH  25  27
ENDBRANCH   3  21
TORSDOF 5
