REMARK  5 active torsions:
REMARK  status: ('A' for Active; 'I' for Inactive)
REMARK    1  A    between atoms: C2_2  and  N1_24 
REMARK       I    between atoms: C3_3  and  N2_27 
REMARK       I    between atoms: C3_3  and  N1_24 
REMARK    2  A    between atoms: C13_7  and  C15_9 
REMARK    3  A    between atoms: C15_9  and  C18_12 
REMARK    4  A    between atoms: C10_18  and  C9_19 
REMARK    5  A    between atoms: C7_28  and  C8_29 
REMARK       I    between atoms: C8_29  and  N3_30 
ROOT
HETATM    1  C1  1LT A1102      22.237  -3.373   6.942  1.00 29.48     0.025 A 
HETATM    2  C2  1LT A1102      20.577  -3.287   5.482  1.00 31.21     0.153 A 
HETATM    3  C9  1LT A1102      22.912  -2.707   5.923  1.00 30.21     0.041 A 
HETATM    4  C   1LT A1102      22.816  -3.774   8.260  1.00 29.25     0.070 C 
HETATM    5  S   1LT A1102      21.807  -2.461   4.592  1.00 30.69    -0.051 SA
HETATM    6  N   1LT A1102      20.923  -3.699   6.674  1.00 31.52    -0.339 N 
ATOM      7  HN  1LT A1102      20.306  -4.194   7.318  1.00  0.00     0.168 HD
ENDROOT
BRANCH   2   8
HETATM    8  N1  1LT A1102      19.302  -3.518   5.003  1.00 32.80    -0.289 N 
HETATM    9  C3  1LT A1102      18.832  -3.081   3.755  1.00 30.89     0.325 C 
HETATM   10  N2  1LT A1102      17.524  -3.382   3.428  1.00 31.78    -0.320 N 
HETATM   11  O   1LT A1102      19.546  -2.459   2.982  1.00 28.68    -0.247 OA
HETATM   12  C4  1LT A1102      16.543  -4.117   4.241  1.00 31.75     0.129 C 
HETATM   13  C7  1LT A1102      16.976  -2.963   2.127  1.00 33.94     0.180 C 
HETATM   14  C5  1LT A1102      15.224  -3.814   3.565  1.00 33.06     0.022 C 
HETATM   15  C6  1LT A1102      15.564  -3.569   2.114  1.00 32.91     0.037 C 
ATOM     16  H1  1LT A1102      18.659  -4.042   5.597  1.00  0.00     0.172 HD
BRANCH  13  17
HETATM   17  C8  1LT A1102      16.956  -1.445   1.933  1.00 36.23     0.238 C 
HETATM   18  N3  1LT A1102      16.763  -0.710   3.016  1.00 38.59    -0.368 N 
ATOM     19  H32 1LT A1102      16.578  -1.112   3.935  1.00  0.00     0.159 HD
ATOM     20  H31 1LT A1102      16.750   0.302   2.887  1.00  0.00     0.159 HD
HETATM   21  O1  1LT A1102      17.180  -0.958   0.821  1.00 36.45    -0.271 OA
ENDBRANCH  13  17
ENDBRANCH   2   8
BRANCH   3  22
HETATM   22  C10 1LT A1102      24.284  -2.177   5.760  1.00 28.09    -0.014 A 
HETATM   23  C14 1LT A1102      24.720  -1.761   4.506  1.00 28.89     0.039 A 
HETATM   24  C13 1LT A1102      26.025  -1.263   4.386  1.00 31.46     0.026 A 
HETATM   25  N4  1LT A1102      26.860  -1.157   5.428  1.00 28.32    -0.368 N 
HETATM   26  C12 1LT A1102      26.423  -1.587   6.620  1.00 27.11     0.089 A 
ATOM     27  H4  1LT A1102      27.795  -0.763   5.318  1.00  0.00     0.165 HD
HETATM   28  C11 1LT A1102      25.166  -2.108   6.832  1.00 28.02     0.030 A 
BRANCH  24  29
HETATM   29  C15 1LT A1102      26.599  -0.845   3.010  1.00 36.92     0.092 C 
HETATM   30  C16 1LT A1102      25.500  -0.808   1.936  1.00 37.10     0.031 C 
HETATM   31  C17 1LT A1102      27.271   0.535   3.112  1.00 34.98     0.031 C 
BRANCH  29  32
HETATM   32  C18 1LT A1102      27.722  -1.924   2.520  1.00 41.31     0.400 C 
HETATM   33  F1  1LT A1102      27.224  -3.152   2.427  1.00 42.86    -0.170 F 
HETATM   34  F   1LT A1102      28.762  -2.000   3.342  1.00 43.09    -0.170 F 
HETATM   35  F2  1LT A1102      28.197  -1.591   1.320  1.00 40.44    -0.170 F 
ENDBRANCH  29  32
ENDBRANCH  24  29
ENDBRANCH   3  22
TORSDOF 5
