REMARK  5 active torsions:
REMARK  status: ('A' for Active; 'I' for Inactive)
REMARK    1  A    between atoms: C2_2  and  N1_22 
REMARK       I    between atoms: C3_3  and  N2_24 
REMARK       I    between atoms: C3_3  and  N1_22 
REMARK    2  A    between atoms: C13_7  and  C15_9 
REMARK    3  A    between atoms: C15_9  and  C18_12 
REMARK    4  A    between atoms: C10_17  and  C9_18 
REMARK    5  A    between atoms: C7_25  and  C8_26 
REMARK       I    between atoms: C8_26  and  N3_27 
ROOT
HETATM    1  C1  1LT A1102      -1.949   0.881  21.764  1.00 29.48     0.051 A 
HETATM    2  C2  1LT A1102      -1.746  -0.292  19.899  1.00 31.21     0.175 A 
HETATM    3  C9  1LT A1102      -0.641   0.447  21.951  1.00 30.21     0.043 A 
HETATM    4  C   1LT A1102      -2.733   1.737  22.705  1.00 29.25     0.072 C 
HETATM    5  S   1LT A1102      -0.171  -0.518  20.573  1.00 30.69    -0.049 SA
HETATM    6  N   1LT A1102      -2.561   0.450  20.604  1.00 31.52    -0.228 NA
ENDROOT
BRANCH   2   7
HETATM    7  N1  1LT A1102      -2.158  -0.841  18.700  1.00 32.80    -0.287 N 
HETATM    8  C3  1LT A1102      -1.343  -1.616  17.861  1.00 30.89     0.325 C 
HETATM    9  O   1LT A1102      -0.185  -1.874  18.151  1.00 28.68    -0.247 OA
HETATM   10  N2  1LT A1102      -1.902  -2.082  16.687  1.00 31.78    -0.320 N 
HETATM   11  C4  1LT A1102      -3.272  -1.862  16.196  1.00 31.75     0.129 C 
HETATM   12  C7  1LT A1102      -1.103  -2.912  15.770  1.00 33.94     0.180 C 
HETATM   13  C5  1LT A1102      -3.195  -2.263  14.739  1.00 33.06     0.022 C 
HETATM   14  C6  1LT A1102      -2.098  -3.300  14.666  1.00 32.91     0.037 C 
HETATM   15  H1  1LT A1102      -3.110  -0.672  18.407  1.00  0.00     0.172 HD
BRANCH  12  16
HETATM   16  C8  1LT A1102       0.129  -2.195  15.213  1.00 36.23     0.238 C 
HETATM   17  O1  1LT A1102       1.178  -2.816  15.024  1.00 36.45    -0.271 OA
HETATM   18  N3  1LT A1102       0.020  -0.890  15.022  1.00 38.59    -0.368 N 
HETATM   19  H31 1LT A1102       0.811  -0.361  14.682  1.00  0.00     0.159 HD
HETATM   20  H32 1LT A1102      -0.854  -0.422  15.217  1.00  0.00     0.159 HD
ENDBRANCH  12  16
ENDBRANCH   2   7
BRANCH   3  21
HETATM   21  C10 1LT A1102       0.378   0.647  23.006  1.00 28.09    -0.014 A 
HETATM   22  C14 1LT A1102       1.534  -0.128  23.007  1.00 28.89     0.041 A 
HETATM   23  C13 1LT A1102       2.479   0.087  24.020  1.00 31.46     0.051 A 
HETATM   24  N4  1LT A1102       2.323   1.015  24.974  1.00 28.32    -0.264 NA
HETATM   25  C12 1LT A1102       1.190   1.731  24.964  1.00 27.11     0.118 A 
HETATM   26  C11 1LT A1102       0.196   1.579  24.022  1.00 28.02     0.032 A 
BRANCH  23  27
HETATM   27  C15 1LT A1102       3.755  -0.784  24.122  1.00 36.92     0.095 C 
HETATM   28  C16 1LT A1102       3.933  -1.660  22.871  1.00 37.10     0.031 C 
HETATM   29  C17 1LT A1102       4.994   0.110  24.309  1.00 34.98     0.031 C 
BRANCH  27  30
HETATM   30  C18 1LT A1102       3.650  -1.785  25.406  1.00 41.31     0.400 C 
HETATM   31  F2  1LT A1102       4.729  -2.563  25.482  1.00 40.44    -0.170 F 
HETATM   32  F1  1LT A1102       2.588  -2.580  25.331  1.00 42.86    -0.170 F 
HETATM   33  F   1LT A1102       3.556  -1.138  26.562  1.00 43.09    -0.170 F 
ENDBRANCH  27  30
ENDBRANCH  23  27
ENDBRANCH   3  21
TORSDOF 5
