REMARK  5 active torsions:
REMARK  status: ('A' for Active; 'I' for Inactive)
REMARK    1  A    between atoms: C2_2  and  N1_22 
REMARK       I    between atoms: C3_3  and  N1_22 
REMARK       I    between atoms: C3_3  and  N2_24 
REMARK    2  A    between atoms: C13_7  and  C15_9 
REMARK    3  A    between atoms: C15_9  and  C18_12 
REMARK    4  A    between atoms: C10_17  and  C9_18 
REMARK    5  A    between atoms: C7_25  and  C8_26 
REMARK       I    between atoms: C8_26  and  N3_27 
ROOT
HETATM    1  C1  1LT A1102      24.861  12.589  34.444  1.00 29.48     0.051 A 
HETATM    2  C2  1LT A1102      23.617  11.271  33.175  1.00 31.21     0.175 A 
HETATM    3  C9  1LT A1102      23.867  13.510  34.127  1.00 30.21     0.043 A 
HETATM    4  C   1LT A1102      26.061  12.853  35.294  1.00 29.25     0.072 C 
HETATM    5  S   1LT A1102      22.680  12.721  33.116  1.00 30.69    -0.049 SA
HETATM    6  N   1LT A1102      24.709  11.333  33.894  1.00 31.52    -0.228 NA
ENDROOT
BRANCH   2   7
HETATM    7  N1  1LT A1102      23.274  10.103  32.521  1.00 32.80    -0.287 N 
HETATM    8  C3  1LT A1102      22.107   9.935  31.760  1.00 30.89     0.325 C 
HETATM    9  O   1LT A1102      21.300  10.840  31.613  1.00 28.68    -0.247 OA
HETATM   10  N2  1LT A1102      21.902   8.698  31.178  1.00 31.78    -0.320 N 
HETATM   11  C4  1LT A1102      22.771   7.513  31.259  1.00 31.75     0.129 C 
HETATM   12  C7  1LT A1102      20.703   8.462  30.358  1.00 33.94     0.180 C 
HETATM   13  C5  1LT A1102      21.883   6.389  30.774  1.00 33.06     0.022 C 
HETATM   14  C6  1LT A1102      20.901   7.034  29.824  1.00 32.91     0.037 C 
HETATM   15  H1  1LT A1102      23.905   9.319  32.595  1.00  0.00     0.172 HD
BRANCH  12  16
HETATM   16  C8  1LT A1102      19.392   8.612  31.132  1.00 36.23     0.238 C 
HETATM   17  N3  1LT A1102      19.415   8.269  32.410  1.00 38.59    -0.368 N 
HETATM   18  H31 1LT A1102      20.262   7.902  32.820  1.00  0.00     0.159 HD
HETATM   19  H32 1LT A1102      18.585   8.374  32.976  1.00  0.00     0.159 HD
HETATM   20  O1  1LT A1102      18.398   9.096  30.584  1.00 36.45    -0.271 OA
ENDBRANCH  12  16
ENDBRANCH   2   7
BRANCH   3  21
HETATM   21  C10 1LT A1102      23.616  14.927  34.472  1.00 28.09    -0.014 A 
HETATM   22  C11 1LT A1102      24.361  15.577  35.449  1.00 28.02     0.032 A 
HETATM   23  C12 1LT A1102      24.067  16.891  35.738  1.00 27.11     0.118 A 
HETATM   24  N4  1LT A1102      23.111  17.595  35.115  1.00 28.32    -0.264 NA
HETATM   25  C13 1LT A1102      22.421  16.981  34.144  1.00 31.46     0.051 A 
HETATM   26  C14 1LT A1102      22.635  15.641  33.792  1.00 28.89     0.041 A 
BRANCH  25  27
HETATM   27  C15 1LT A1102      21.394  17.855  33.384  1.00 36.92     0.095 C 
HETATM   28  C17 1LT A1102      20.497  18.609  34.382  1.00 34.98     0.031 C 
HETATM   29  C16 1LT A1102      20.523  17.002  32.447  1.00 37.10     0.031 C 
BRANCH  27  30
HETATM   30  C18 1LT A1102      22.167  18.956  32.461  1.00 41.31     0.400 C 
HETATM   31  F   1LT A1102      22.909  19.799  33.170  1.00 43.09    -0.170 F 
HETATM   32  F2  1LT A1102      21.291  19.691  31.776  1.00 40.44    -0.170 F 
HETATM   33  F1  1LT A1102      22.983  18.384  31.582  1.00 42.86    -0.170 F 
ENDBRANCH  27  30
ENDBRANCH  25  27
ENDBRANCH   3  21
TORSDOF 5
