REMARK  5 active torsions:
REMARK  status: ('A' for Active; 'I' for Inactive)
REMARK    1  A    between atoms: C2_2  and  N1_24 
REMARK       I    between atoms: C3_3  and  N1_24 
REMARK       I    between atoms: C3_3  and  N2_27 
REMARK    2  A    between atoms: C13_7  and  C15_9 
REMARK    3  A    between atoms: C15_9  and  C18_12 
REMARK    4  A    between atoms: C10_18  and  C9_19 
REMARK    5  A    between atoms: C7_28  and  C8_29 
REMARK       I    between atoms: C8_29  and  N3_30 
ROOT
HETATM    1  C1  1LT A1102      -4.495 -11.242  15.974  1.00 29.48     0.025 A 
HETATM    2  C2  1LT A1102      -2.899 -10.041  15.024  1.00 31.21     0.153 A 
HETATM    3  C9  1LT A1102      -4.184 -10.439  17.066  1.00 30.21     0.041 A 
HETATM    4  C   1LT A1102      -5.525 -12.325  15.947  1.00 29.25     0.070 C 
HETATM    5  S   1LT A1102      -2.923  -9.324  16.596  1.00 30.69    -0.051 SA
HETATM    6  N   1LT A1102      -3.757 -11.010  14.831  1.00 31.52    -0.339 N 
ATOM      7  HN  1LT A1102      -3.865 -11.523  13.956  1.00  0.00     0.168 HD
ENDROOT
BRANCH   2   8
HETATM    8  N1  1LT A1102      -2.045  -9.648  14.011  1.00 32.80    -0.289 N 
HETATM    9  C3  1LT A1102      -1.121  -8.598  14.115  1.00 30.89     0.325 C 
HETATM   10  O   1LT A1102      -0.998  -7.949  15.144  1.00 28.68    -0.247 OA
HETATM   11  N2  1LT A1102      -0.347  -8.320  13.004  1.00 31.78    -0.320 N 
HETATM   12  C4  1LT A1102      -0.373  -9.001  11.700  1.00 31.75     0.129 C 
HETATM   13  C7  1LT A1102       0.650  -7.238  13.055  1.00 33.94     0.180 C 
HETATM   14  C5  1LT A1102       0.381  -8.056  10.791  1.00 33.06     0.022 C 
HETATM   15  C6  1LT A1102       1.350  -7.323  11.689  1.00 32.91     0.037 C 
ATOM     16  H1  1LT A1102      -2.090 -10.156  13.128  1.00  0.00     0.172 HD
BRANCH  13  17
HETATM   17  C8  1LT A1102       0.041  -5.857  13.306  1.00 36.23     0.238 C 
HETATM   18  O1  1LT A1102       0.641  -5.030  13.999  1.00 36.45    -0.271 OA
HETATM   19  N3  1LT A1102      -1.166  -5.641  12.811  1.00 38.59    -0.368 N 
ATOM     20  H32 1LT A1102      -1.662  -6.324  12.238  1.00  0.00     0.159 HD
ATOM     21  H31 1LT A1102      -1.572  -4.720  12.978  1.00  0.00     0.159 HD
ENDBRANCH  13  17
ENDBRANCH   2   8
BRANCH   3  22
HETATM   22  C10 1LT A1102      -4.691 -10.329  18.452  1.00 28.09    -0.014 A 
HETATM   23  C11 1LT A1102      -5.841 -10.998  18.858  1.00 28.02     0.030 A 
HETATM   24  C12 1LT A1102      -6.272 -10.840  20.157  1.00 27.11     0.089 A 
HETATM   25  N4  1LT A1102      -5.634 -10.092  21.068  1.00 28.32    -0.368 N 
HETATM   26  C13 1LT A1102      -4.503  -9.482  20.689  1.00 31.46     0.026 A 
ATOM     27  H4  1LT A1102      -5.997  -9.991  22.016  1.00  0.00     0.165 HD
HETATM   28  C14 1LT A1102      -3.995  -9.566  19.385  1.00 28.89     0.039 A 
BRANCH  26  29
HETATM   29  C15 1LT A1102      -3.747  -8.706  21.795  1.00 36.92     0.092 C 
HETATM   30  C16 1LT A1102      -2.592  -7.881  21.204  1.00 37.10     0.031 C 
HETATM   31  C17 1LT A1102      -4.714  -7.777  22.549  1.00 34.98     0.031 C 
BRANCH  29  32
HETATM   32  C18 1LT A1102      -3.100  -9.750  22.870  1.00 41.31     0.400 C 
HETATM   33  F2  1LT A1102      -2.417  -9.093  23.806  1.00 40.44    -0.170 F 
HETATM   34  F   1LT A1102      -4.013 -10.482  23.497  1.00 43.09    -0.170 F 
HETATM   35  F1  1LT A1102      -2.264 -10.605  22.291  1.00 42.86    -0.170 F 
ENDBRANCH  29  32
ENDBRANCH  26  29
ENDBRANCH   3  22
TORSDOF 5
