REMARK  11 active torsions:
REMARK  status: ('A' for Active; 'I' for Inactive)
REMARK    1  A    between atoms: O3B_8  and  PG_1 
REMARK    2  A    between atoms: O3A_12  and  PB_5 
REMARK    3  A    between atoms: O3B_8  and  PB_5 
REMARK    4  A    between atoms: O3A_12  and  PA_9 
REMARK    5  A    between atoms: O5'_13  and  PA_9 
REMARK    6  A    between atoms: C5'_14  and  O5'_13 
REMARK    7  A    between atoms: C4'_15  and  C5'_14 
REMARK    8  A    between atoms: C3'_17  and  O3'_18 
REMARK    9  A    between atoms: C2'_19  and  O2'_20 
REMARK   10  A    between atoms: C1'_21  and  N9_22 
REMARK   11  A    between atoms: C6_26  and  N6_27 
ROOT
HETATM    1  C4' ATP E 355      16.799   7.192  -1.224  1.00 15.72     0.180 C 
HETATM    2  O4' ATP E 355      16.466   7.812   0.043  1.00 30.04    -0.353 OA
HETATM    3  C3' ATP E 355      16.095   5.856  -1.105  1.00  9.26     0.182 C 
HETATM    4  C2' ATP E 355      16.435   5.480   0.350  1.00  1.00     0.198 C 
HETATM    5  C1' ATP E 355      16.349   6.805   1.050  1.00 12.71     0.262 C 
ENDROOT
BRANCH   1   6
HETATM    6  C5' ATP E 355      16.356   8.128  -2.342  1.00 58.54     0.216 C 
BRANCH   6   7
HETATM    7  O5' ATP E 355      15.073   8.756  -2.098  1.00 14.92    -0.287 OA
BRANCH   7   8
HETATM    8  PA  ATP E 355      14.074   8.637  -3.335  1.00 19.49     0.417 P 
HETATM    9  O1A ATP E 355      12.712   9.051  -3.025  1.00 13.47    -0.624 OA
HETATM   10  O2A ATP E 355      14.179   7.268  -3.901  1.00 25.00    -0.624 OA
BRANCH   8  11
HETATM   11  O3A ATP E 355      14.699   9.693  -4.369  1.00 21.72    -0.180 OA
BRANCH  11  12
HETATM   12  PB  ATP E 355      14.404   9.888  -5.890  1.00 22.96     0.428 P 
HETATM   13  O1B ATP E 355      12.960   9.779  -6.029  1.00 13.08    -0.624 OA
HETATM   14  O2B ATP E 355      15.062  11.118  -6.414  1.00 19.59    -0.624 OA
BRANCH  12  15
HETATM   15  O3B ATP E 355      15.031   8.557  -6.486  1.00 13.80    -0.173 OA
BRANCH  15  16
HETATM   16  PG  ATP E 355      14.830   7.647  -7.815  1.00 18.11     0.431 P 
HETATM   17  O1G ATP E 355      15.974   7.892  -8.705  1.00 17.95    -0.616 OA
HETATM   18  O2G ATP E 355      14.676   6.177  -7.471  1.00 15.57    -0.616 OA
HETATM   19  O3G ATP E 355      13.620   8.085  -8.439  1.00  6.59    -0.616 OA
ENDBRANCH  15  16
ENDBRANCH  12  15
ENDBRANCH  11  12
ENDBRANCH   8  11
ENDBRANCH   7   8
ENDBRANCH   6   7
ENDBRANCH   1   6
BRANCH   3  20
HETATM   20  O3' ATP E 355      16.497   4.911  -2.078  1.00 33.78    -0.390 OA
HETATM   21 'HO3 ATP E 355      16.015   4.091  -1.947  1.00  0.00     0.210 HD
ENDBRANCH   3  20
BRANCH   4  22
HETATM   22  O2' ATP E 355      17.725   4.928   0.539  1.00 48.53    -0.388 OA
HETATM   23 'HO2 ATP E 355      17.780   4.081   0.091  1.00  0.00     0.210 HD
ENDBRANCH   4  22
BRANCH   5  24
HETATM   24  N9  ATP E 355      15.083   7.028   1.781  1.00 19.15    -0.294 N 
HETATM   25  C4  ATP E 355      14.666   6.788   3.073  1.00 37.89     0.167 C 
HETATM   26  C5  ATP E 355      13.382   7.331   3.164  1.00 24.00     0.149 C 
HETATM   27  N3  ATP E 355      15.454   6.436   4.126  1.00 18.18    -0.222 NA
HETATM   28  N7  ATP E 355      12.951   7.723   1.919  1.00 35.77    -0.236 NA
HETATM   29  C6  ATP E 355      12.747   7.295   4.438  1.00 26.67     0.155 C 
HETATM   30  C8  ATP E 355      14.000   7.554   1.146  1.00 45.84     0.214 C 
HETATM   31  N1  ATP E 355      13.460   6.776   5.460  1.00 19.73    -0.222 NA
HETATM   32  C2  ATP E 355      14.755   6.416   5.260  1.00 28.79     0.237 C 
BRANCH  29  33
HETATM   33  N6  ATP E 355      11.464   7.650   4.660  1.00 31.35    -0.382 N 
HETATM   34 1HN6 ATP E 355      10.899   8.003   3.901  1.00  0.00     0.157 HD
HETATM   35 2HN6 ATP E 355      11.069   7.561   5.585  1.00  0.00     0.157 HD
ENDBRANCH  29  33
ENDBRANCH   5  24
TORSDOF 11
