REMARK  5 active torsions:
REMARK  status: ('A' for Active; 'I' for Inactive)
REMARK    1  A    between atoms: C2_2  and  N1_22 
REMARK       I    between atoms: C3_3  and  N1_22 
REMARK       I    between atoms: C3_3  and  N2_24 
REMARK    2  A    between atoms: C13_7  and  C15_9 
REMARK    3  A    between atoms: C15_9  and  C18_12 
REMARK    4  A    between atoms: C10_17  and  C9_18 
REMARK    5  A    between atoms: C7_25  and  C8_26 
REMARK       I    between atoms: C8_26  and  N3_27 
ROOT
HETATM    1  C1  1LT A1102      -4.533 -14.914  14.417  1.00 29.48     0.051 A 
HETATM    2  C2  1LT A1102      -2.844 -13.588  13.883  1.00 31.21     0.175 A 
HETATM    3  C9  1LT A1102      -4.196 -14.505  15.704  1.00 30.21     0.043 A 
HETATM    4  C   1LT A1102      -5.626 -15.867  14.059  1.00 29.25     0.072 C 
HETATM    5  S   1LT A1102      -2.858 -13.384  15.599  1.00 30.69    -0.049 SA
HETATM    6  N   1LT A1102      -3.756 -14.394  13.402  1.00 31.52    -0.228 NA
ENDROOT
BRANCH   2   7
HETATM    7  N1  1LT A1102      -1.946 -12.962  13.040  1.00 32.80    -0.287 N 
HETATM    8  C3  1LT A1102      -0.961 -12.057  13.461  1.00 30.89     0.325 C 
HETATM    9  N2  1LT A1102      -0.148 -11.505  12.490  1.00 31.78    -0.320 N 
HETATM   10  O   1LT A1102      -0.821 -11.762  14.639  1.00 28.68    -0.247 OA
HETATM   11  C4  1LT A1102      -0.187 -11.754  11.040  1.00 31.75     0.129 C 
HETATM   12  C7  1LT A1102       0.913 -10.558  12.870  1.00 33.94     0.180 C 
HETATM   13  C5  1LT A1102       0.643 -10.627  10.465  1.00 33.06     0.022 C 
HETATM   14  C6  1LT A1102       1.636 -10.269  11.545  1.00 32.91     0.037 C 
HETATM   15  H1  1LT A1102      -2.003 -13.170  12.053  1.00  0.00     0.172 HD
BRANCH  12  16
HETATM   16  C8  1LT A1102       0.386  -9.282  13.531  1.00 36.23     0.238 C 
HETATM   17  O1  1LT A1102       1.021  -8.747  14.444  1.00 36.45    -0.271 OA
HETATM   18  N3  1LT A1102      -0.795  -8.847  13.123  1.00 38.59    -0.368 N 
HETATM   19  H31 1LT A1102      -1.204  -8.025  13.544  1.00  0.00     0.159 HD
HETATM   20  H32 1LT A1102      -1.288  -9.336  12.389  1.00  0.00     0.159 HD
ENDBRANCH  12  16
ENDBRANCH   2   7
BRANCH   3  21
HETATM   21  C10 1LT A1102      -4.725 -14.789  17.056  1.00 28.09    -0.014 A 
HETATM   22  C11 1LT A1102      -5.922 -15.473  17.236  1.00 28.02     0.032 A 
HETATM   23  C12 1LT A1102      -6.371 -15.691  18.520  1.00 27.11     0.118 A 
HETATM   24  N4  1LT A1102      -5.708 -15.299  19.618  1.00 28.32    -0.264 NA
HETATM   25  C13 1LT A1102      -4.534 -14.678  19.445  1.00 31.46     0.051 A 
HETATM   26  C14 1LT A1102      -4.004 -14.393  18.178  1.00 28.89     0.041 A 
BRANCH  25  27
HETATM   27  C15 1LT A1102      -3.755 -14.328  20.736  1.00 36.92     0.095 C 
HETATM   28  C17 1LT A1102      -4.679 -13.611  21.736  1.00 34.98     0.031 C 
HETATM   29  C16 1LT A1102      -2.538 -13.439  20.428  1.00 37.10     0.031 C 
BRANCH  27  30
HETATM   30  C18 1LT A1102      -3.197 -15.689  21.442  1.00 41.31     0.400 C 
HETATM   31  F1  1LT A1102      -2.404 -16.380  20.631  1.00 42.86    -0.170 F 
HETATM   32  F   1LT A1102      -4.168 -16.516  21.814  1.00 43.09    -0.170 F 
HETATM   33  F2  1LT A1102      -2.496 -15.395  22.536  1.00 40.44    -0.170 F 
ENDBRANCH  27  30
ENDBRANCH  25  27
ENDBRANCH   3  21
TORSDOF 5
