REMARK  11 active torsions:
REMARK  status: ('A' for Active; 'I' for Inactive)
REMARK    1  A    between atoms: O3B_8  and  PG_1 
REMARK    2  A    between atoms: O3A_12  and  PB_5 
REMARK    3  A    between atoms: O3B_8  and  PB_5 
REMARK    4  A    between atoms: O3A_12  and  PA_9 
REMARK    5  A    between atoms: O5'_13  and  PA_9 
REMARK    6  A    between atoms: C5'_14  and  O5'_13 
REMARK    7  A    between atoms: C4'_15  and  C5'_14 
REMARK    8  A    between atoms: C3'_17  and  O3'_18 
REMARK    9  A    between atoms: C2'_19  and  O2'_20 
REMARK   10  A    between atoms: C1'_21  and  N9_22 
REMARK   11  A    between atoms: C6_26  and  N6_27 
ROOT
HETATM    1  C4' ATP E 355       1.892   0.736  14.911  1.00 15.72     0.180 C 
HETATM    2  O4' ATP E 355       1.482   2.089  14.590  1.00 30.04    -0.353 OA
HETATM    3  C3' ATP E 355       2.023   0.121  13.533  1.00  9.26     0.182 C 
HETATM    4  C2' ATP E 355       0.763   0.683  12.847  1.00  1.00     0.198 C 
HETATM    5  C1' ATP E 355       0.694   2.077  13.398  1.00 12.71     0.262 C 
ENDROOT
BRANCH   1   6
HETATM    6  C5' ATP E 355       3.147   0.811  15.772  1.00 58.54     0.216 C 
BRANCH   6   7
HETATM    7  O5' ATP E 355       4.087   1.827  15.340  1.00 14.92    -0.287 OA
BRANCH   7   8
HETATM    8  PA  ATP E 355       5.579   1.281  15.205  1.00 19.49     0.417 P 
HETATM    9  O1A ATP E 355       6.484   2.216  14.552  1.00 13.47    -0.624 OA
HETATM   10  O2A ATP E 355       5.537  -0.065  14.577  1.00 25.00    -0.624 OA
BRANCH   8  11
HETATM   11  O3A ATP E 355       6.021   1.141  16.742  1.00 21.72    -0.180 OA
BRANCH  11  12
HETATM   12  PB  ATP E 355       7.247   0.396  17.359  1.00 22.96     0.428 P 
HETATM   13  O1B ATP E 355       8.374   0.709  16.494  1.00 13.08    -0.624 OA
HETATM   14  O2B ATP E 355       7.382   0.694  18.813  1.00 19.59    -0.624 OA
BRANCH  12  15
HETATM   15  O3B ATP E 355       6.848  -1.114  17.078  1.00 13.80    -0.173 OA
BRANCH  15  16
HETATM   16  PG  ATP E 355       7.624  -2.531  16.913  1.00 18.11     0.431 P 
HETATM   17  O1G ATP E 355       7.401  -3.310  18.139  1.00 17.95    -0.616 OA
HETATM   18  O2G ATP E 355       7.174  -3.275  15.670  1.00 15.57    -0.616 OA
HETATM   19  O3G ATP E 355       9.014  -2.228  16.769  1.00  6.59    -0.616 OA
ENDBRANCH  15  16
ENDBRANCH  12  15
ENDBRANCH  11  12
ENDBRANCH   8  11
ENDBRANCH   7   8
ENDBRANCH   6   7
ENDBRANCH   1   6
BRANCH   3  20
HETATM   20  O3' ATP E 355       2.119  -1.291  13.545  1.00 33.78    -0.390 OA
HETATM   21 'HO3 ATP E 355       2.199  -1.614  12.645  1.00  0.00     0.210 HD
ENDBRANCH   3  20
BRANCH   4  22
HETATM   22  O2' ATP E 355      -0.439  -0.004  13.148  1.00 48.53    -0.388 OA
HETATM   23 'HO2 ATP E 355      -0.395  -0.896  12.796  1.00  0.00     0.210 HD
ENDBRANCH   4  22
BRANCH   5  24
HETATM   24  N9  ATP E 355       1.218   3.119  12.488  1.00 19.15    -0.294 N 
HETATM   25  C4  ATP E 355       0.651   3.920  11.520  1.00 37.89     0.167 C 
HETATM   26  N3  ATP E 355      -0.680   4.092  11.288  1.00 18.18    -0.222 NA
HETATM   27  C5  ATP E 355       1.668   4.778  11.095  1.00 24.00     0.149 C 
HETATM   28  C2  ATP E 355      -0.887   5.037  10.372  1.00 28.79     0.237 C 
HETATM   29  N1  ATP E 355       0.027   5.842   9.769  1.00 19.73    -0.222 NA
HETATM   30  C6  ATP E 355       1.322   5.782  10.145  1.00 26.67     0.155 C 
HETATM   31  N7  ATP E 355       2.866   4.393  11.647  1.00 35.77    -0.236 NA
HETATM   32  C8  ATP E 355       2.542   3.432  12.484  1.00 45.84     0.214 C 
BRANCH  30  33
HETATM   33  N6  ATP E 355       2.211   6.593   9.536  1.00 31.35    -0.382 N 
HETATM   34 1HN6 ATP E 355       1.897   7.256   8.842  1.00  0.00     0.157 HD
HETATM   35 2HN6 ATP E 355       3.191   6.536   9.774  1.00  0.00     0.157 HD
ENDBRANCH  30  33
ENDBRANCH   5  24
TORSDOF 11
