REMARK  5 active torsions:
REMARK  status: ('A' for Active; 'I' for Inactive)
REMARK    1  A    between atoms: C2_2  and  N1_22 
REMARK       I    between atoms: C3_3  and  N2_24 
REMARK       I    between atoms: C3_3  and  N1_22 
REMARK    2  A    between atoms: C13_7  and  C15_9 
REMARK    3  A    between atoms: C15_9  and  C18_12 
REMARK    4  A    between atoms: C10_17  and  C9_18 
REMARK    5  A    between atoms: C7_25  and  C8_26 
REMARK       I    between atoms: C8_26  and  N3_27 
ROOT
HETATM    1  C1  1LT A1102      -3.080 -11.729  15.773  1.00 29.48     0.051 A 
HETATM    2  C2  1LT A1102      -1.603 -10.421  14.772  1.00 31.21     0.175 A 
HETATM    3  C9  1LT A1102      -2.750 -10.938  16.869  1.00 30.21     0.043 A 
HETATM    4  C   1LT A1102      -4.052 -12.864  15.772  1.00 29.25     0.072 C 
HETATM    5  S   1LT A1102      -1.577  -9.746  16.362  1.00 30.69    -0.049 SA
HETATM    6  N   1LT A1102      -2.419 -11.429  14.599  1.00 31.52    -0.228 NA
ENDROOT
BRANCH   2   7
HETATM    7  N1  1LT A1102      -0.829  -9.958  13.725  1.00 32.80    -0.287 N 
HETATM    8  C3  1LT A1102       0.044  -8.863  13.808  1.00 30.89     0.325 C 
HETATM    9  N2  1LT A1102       0.739  -8.517  12.665  1.00 31.78    -0.320 N 
HETATM   10  O   1LT A1102       0.190  -8.235  14.846  1.00 28.68    -0.247 OA
HETATM   11  C4  1LT A1102       0.676  -9.166  11.346  1.00 31.75     0.129 C 
HETATM   12  C7  1LT A1102       1.680  -7.385  12.691  1.00 33.94     0.180 C 
HETATM   13  C5  1LT A1102       1.328  -8.159  10.424  1.00 33.06     0.022 C 
HETATM   14  C6  1LT A1102       2.307  -7.399  11.288  1.00 32.91     0.037 C 
HETATM   15  H1  1LT A1102      -0.896 -10.441  12.840  1.00  0.00     0.172 HD
BRANCH  12  16
HETATM   16  C8  1LT A1102       1.016  -6.045  13.014  1.00 36.23     0.238 C 
HETATM   17  O1  1LT A1102       1.610  -5.205  13.696  1.00 36.45    -0.271 OA
HETATM   18  N3  1LT A1102      -0.227  -5.881  12.591  1.00 38.59    -0.368 N 
HETATM   19  H31 1LT A1102      -0.723  -5.027  12.801  1.00  0.00     0.159 HD
HETATM   20  H32 1LT A1102      -0.679  -6.610  12.059  1.00  0.00     0.159 HD
ENDBRANCH  12  16
ENDBRANCH   2   7
BRANCH   3  21
HETATM   21  C10 1LT A1102      -3.184 -10.890  18.283  1.00 28.09    -0.014 A 
HETATM   22  C11 1LT A1102      -4.273 -11.629  18.732  1.00 28.02     0.032 A 
HETATM   23  C12 1LT A1102      -4.639 -11.527  20.056  1.00 27.11     0.118 A 
HETATM   24  N4  1LT A1102      -3.991 -10.769  20.952  1.00 28.32    -0.264 NA
HETATM   25  C13 1LT A1102      -2.916 -10.090  20.529  1.00 31.46     0.051 A 
HETATM   26  C14 1LT A1102      -2.478 -10.114  19.197  1.00 28.89     0.041 A 
BRANCH  25  27
HETATM   27  C15 1LT A1102      -2.140  -9.303  21.613  1.00 36.92     0.095 C 
HETATM   28  C16 1LT A1102      -1.064  -8.403  20.984  1.00 37.10     0.031 C 
HETATM   29  C17 1LT A1102      -3.111  -8.446  22.444  1.00 34.98     0.031 C 
BRANCH  27  30
HETATM   30  C18 1LT A1102      -1.381 -10.337  22.622  1.00 41.31     0.400 C 
HETATM   31  F2  1LT A1102      -0.682  -9.668  23.538  1.00 40.44    -0.170 F 
HETATM   32  F   1LT A1102      -2.219 -11.132  23.277  1.00 43.09    -0.170 F 
HETATM   33  F1  1LT A1102      -0.536 -11.132  21.975  1.00 42.86    -0.170 F 
ENDBRANCH  27  30
ENDBRANCH  25  27
ENDBRANCH   3  21
TORSDOF 5
