REMARK  11 active torsions:
REMARK  status: ('A' for Active; 'I' for Inactive)
REMARK    1  A    between atoms: O3B_8  and  PG_1 
REMARK    2  A    between atoms: O3A_12  and  PB_5 
REMARK    3  A    between atoms: O3B_8  and  PB_5 
REMARK    4  A    between atoms: O3A_12  and  PA_9 
REMARK    5  A    between atoms: O5'_13  and  PA_9 
REMARK    6  A    between atoms: C5'_14  and  O5'_13 
REMARK    7  A    between atoms: C4'_15  and  C5'_14 
REMARK    8  A    between atoms: C3'_17  and  O3'_18 
REMARK    9  A    between atoms: C2'_19  and  O2'_20 
REMARK   10  A    between atoms: C1'_21  and  N9_22 
REMARK   11  A    between atoms: C6_26  and  N6_27 
ROOT
HETATM    1  C4' ATP E 355      12.622   4.938   7.479  1.00 15.72     0.180 C 
HETATM    2  O4' ATP E 355      11.705   6.061   7.466  1.00 30.04    -0.353 OA
HETATM    3  C3' ATP E 355      11.733   3.811   6.997  1.00  9.26     0.182 C 
HETATM    4  C2' ATP E 355      10.445   4.102   7.792  1.00  1.00     0.198 C 
HETATM    5  C1' ATP E 355      10.386   5.601   7.767  1.00 12.71     0.262 C 
ENDROOT
BRANCH   1   6
HETATM    6  C5' ATP E 355      13.830   5.301   6.623  1.00 58.54     0.216 C 
BRANCH   6   7
HETATM    7  O5' ATP E 355      13.485   6.009   5.406  1.00 14.92    -0.287 OA
BRANCH   7   8
HETATM    8  PA  ATP E 355      14.171   5.389   4.107  1.00 19.49     0.417 P 
HETATM    9  O1A ATP E 355      13.654   5.936   2.859  1.00 13.47    -0.624 OA
HETATM   10  O2A ATP E 355      14.102   3.908   4.196  1.00 25.00    -0.624 OA
BRANCH   8  11
HETATM   11  O3A ATP E 355      15.694   5.866   4.275  1.00 21.72    -0.180 OA
BRANCH  11  12
HETATM   12  PB  ATP E 355      16.975   5.382   3.525  1.00 22.96     0.428 P 
HETATM   13  O1B ATP E 355      16.592   5.265   2.126  1.00 13.08    -0.624 OA
HETATM   14  O2B ATP E 355      18.149   6.238   3.855  1.00 19.59    -0.624 OA
BRANCH  12  15
HETATM   15  O3B ATP E 355      17.113   3.907   4.095  1.00 13.80    -0.173 OA
BRANCH  15  16
HETATM   16  PG  ATP E 355      17.791   2.513   3.615  1.00 18.11     0.431 P 
HETATM   17  O1G ATP E 355      19.010   2.309   4.410  1.00 17.95    -0.616 OA
HETATM   18  O2G ATP E 355      16.826   1.348   3.737  1.00 15.57    -0.616 OA
HETATM   19  O3G ATP E 355      18.126   2.668   2.234  1.00  6.59    -0.616 OA
ENDBRANCH  15  16
ENDBRANCH  12  15
ENDBRANCH  11  12
ENDBRANCH   8  11
ENDBRANCH   7   8
ENDBRANCH   6   7
ENDBRANCH   1   6
BRANCH   3  20
HETATM   20  O3' ATP E 355      12.283   2.524   7.200  1.00 33.78    -0.390 OA
HETATM   21 'HO3 ATP E 355      11.672   1.859   6.874  1.00  0.00     0.210 HD
ENDBRANCH   3  20
BRANCH   4  22
HETATM   22  O2' ATP E 355      10.455   3.652   9.134  1.00 48.53    -0.388 OA
HETATM   23 'HO2 ATP E 355      10.493   2.693   9.151  1.00  0.00     0.210 HD
ENDBRANCH   4  22
BRANCH   5  24
HETATM   24  N9  ATP E 355       9.462   6.159   6.756  1.00 19.15    -0.294 N 
HETATM   25  C4  ATP E 355       8.132   6.522   6.769  1.00 37.89     0.167 C 
HETATM   26  C5  ATP E 355       7.881   7.087   5.516  1.00 24.00     0.149 C 
HETATM   27  N3  ATP E 355       7.336   6.645   7.867  1.00 18.18    -0.222 NA
HETATM   28  N7  ATP E 355       8.969   6.905   4.695  1.00 35.77    -0.236 NA
HETATM   29  C6  ATP E 355       6.585   7.632   5.293  1.00 26.67     0.155 C 
HETATM   30  C8  ATP E 355       9.884   6.384   5.481  1.00 45.84     0.214 C 
HETATM   31  N1  ATP E 355       5.721   7.593   6.330  1.00 19.73    -0.222 NA
HETATM   32  C2  ATP E 355       6.146   7.145   7.541  1.00 28.79     0.237 C 
BRANCH  29  33
HETATM   33  N6  ATP E 355       6.144   8.085   4.101  1.00 31.35    -0.382 N 
HETATM   34 1HN6 ATP E 355       6.760   8.086   3.301  1.00  0.00     0.157 HD
HETATM   35 2HN6 ATP E 355       5.196   8.423   4.008  1.00  0.00     0.157 HD
ENDBRANCH  29  33
ENDBRANCH   5  24
TORSDOF 11
