REMARK  5 active torsions:
REMARK  status: ('A' for Active; 'I' for Inactive)
REMARK    1  A    between atoms: C2_2  and  N1_22 
REMARK       I    between atoms: C3_3  and  N2_24 
REMARK       I    between atoms: C3_3  and  N1_22 
REMARK    2  A    between atoms: C13_7  and  C15_9 
REMARK    3  A    between atoms: C15_9  and  C18_12 
REMARK    4  A    between atoms: C10_17  and  C9_18 
REMARK    5  A    between atoms: C7_25  and  C8_26 
REMARK       I    between atoms: C8_26  and  N3_27 
ROOT
HETATM    1  C1  1LT A1102      25.907 -23.697  78.042  1.00 29.48     0.051 A 
HETATM    2  C2  1LT A1102      25.868 -23.354  75.857  1.00 31.21     0.175 A 
HETATM    3  C9  1LT A1102      27.281 -23.713  77.821  1.00 30.21     0.043 A 
HETATM    4  C   1LT A1102      25.229 -23.894  79.359  1.00 29.25     0.072 C 
HETATM    5  S   1LT A1102      27.574 -23.429  76.122  1.00 30.69    -0.049 SA
HETATM    6  N   1LT A1102      25.124 -23.501  76.923  1.00 31.52    -0.228 NA
ENDROOT
BRANCH   2   7
HETATM    7  N1  1LT A1102      25.288 -23.156  74.619  1.00 32.80    -0.287 N 
HETATM    8  C3  1LT A1102      26.006 -22.953  73.430  1.00 30.89     0.325 C 
HETATM    9  N2  1LT A1102      25.276 -22.756  72.274  1.00 31.78    -0.320 N 
HETATM   10  O   1LT A1102      27.228 -22.950  73.410  1.00 28.68    -0.247 OA
HETATM   11  C4  1LT A1102      23.812 -22.731  72.130  1.00 31.75     0.129 C 
HETATM   12  C7  1LT A1102      25.971 -22.550  70.992  1.00 33.94     0.180 C 
HETATM   13  C5  1LT A1102      23.600 -22.114  70.765  1.00 33.06     0.022 C 
HETATM   14  C6  1LT A1102      24.829 -22.477  69.966  1.00 32.91     0.037 C 
HETATM   15  H1  1LT A1102      24.280 -23.157  74.565  1.00  0.00     0.172 HD
BRANCH  12  16
HETATM   16  C8  1LT A1102      26.851 -21.299  70.968  1.00 36.23     0.238 C 
HETATM   17  N3  1LT A1102      26.436 -20.267  71.685  1.00 38.59    -0.368 N 
HETATM   18  H31 1LT A1102      25.563 -20.321  72.190  1.00  0.00     0.159 HD
HETATM   19  H32 1LT A1102      26.992 -19.425  71.727  1.00  0.00     0.159 HD
HETATM   20  O1  1LT A1102      27.923 -21.304  70.356  1.00 36.45    -0.271 OA
ENDBRANCH  12  16
ENDBRANCH   2   7
BRANCH   3  21
HETATM   21  C10 1LT A1102      28.469 -23.885  78.686  1.00 28.09    -0.014 A 
HETATM   22  C14 1LT A1102      29.720 -24.084  78.109  1.00 28.89     0.041 A 
HETATM   23  C13 1LT A1102      30.826 -24.243  78.957  1.00 31.46     0.051 A 
HETATM   24  N4  1LT A1102      30.730 -24.196  80.292  1.00 28.32    -0.264 NA
HETATM   25  C12 1LT A1102      29.510 -24.027  80.822  1.00 27.11     0.118 A 
HETATM   26  C11 1LT A1102      28.364 -23.881  80.072  1.00 28.02     0.032 A 
BRANCH  23  27
HETATM   27  C15 1LT A1102      32.236 -24.535  78.387  1.00 36.92     0.095 C 
HETATM   28  C17 1LT A1102      33.275 -23.605  79.038  1.00 34.98     0.031 C 
HETATM   29  C16 1LT A1102      32.267 -24.356  76.860  1.00 37.10     0.031 C 
BRANCH  27  30
HETATM   30  C18 1LT A1102      32.662 -26.077  78.705  1.00 41.31     0.400 C 
HETATM   31  F2  1LT A1102      33.860 -26.348  78.188  1.00 40.44    -0.170 F 
HETATM   32  F   1LT A1102      32.732 -26.339  80.005  1.00 43.09    -0.170 F 
HETATM   33  F1  1LT A1102      31.798 -26.947  78.193  1.00 42.86    -0.170 F 
ENDBRANCH  27  30
ENDBRANCH  23  27
ENDBRANCH   3  21
TORSDOF 5
