REMARK  5 active torsions:
REMARK  status: ('A' for Active; 'I' for Inactive)
REMARK    1  A    between atoms: C2_2  and  N1_22 
REMARK       I    between atoms: C3_3  and  N2_24 
REMARK       I    between atoms: C3_3  and  N1_22 
REMARK    2  A    between atoms: C13_7  and  C15_9 
REMARK    3  A    between atoms: C15_9  and  C18_12 
REMARK    4  A    between atoms: C10_17  and  C9_18 
REMARK    5  A    between atoms: C7_25  and  C8_26 
REMARK       I    between atoms: C8_26  and  N3_27 
ROOT
HETATM    1  C1  1LT A1102      -2.421  21.348  -6.989  1.00 29.48     0.051 A 
HETATM    2  C2  1LT A1102      -3.494  19.431  -6.731  1.00 31.21     0.175 A 
HETATM    3  C9  1LT A1102      -3.414  21.799  -6.125  1.00 30.21     0.043 A 
HETATM    4  C   1LT A1102      -1.332  22.181  -7.584  1.00 29.25     0.072 C 
HETATM    5  S   1LT A1102      -4.441  20.449  -5.705  1.00 30.69    -0.049 SA
HETATM    6  N   1LT A1102      -2.484  20.012  -7.327  1.00 31.52    -0.228 NA
ENDROOT
BRANCH   2   7
HETATM    7  N1  1LT A1102      -3.753  18.089  -6.937  1.00 32.80    -0.287 N 
HETATM    8  C3  1LT A1102      -4.788  17.377  -6.314  1.00 30.89     0.325 C 
HETATM    9  O   1LT A1102      -5.559  17.914  -5.534  1.00 28.68    -0.247 OA
HETATM   10  N2  1LT A1102      -4.906  16.034  -6.617  1.00 31.78    -0.320 N 
HETATM   11  C4  1LT A1102      -4.065  15.243  -7.529  1.00 31.75     0.129 C 
HETATM   12  C7  1LT A1102      -5.980  15.234  -6.005  1.00 33.94     0.180 C 
HETATM   13  C5  1LT A1102      -4.409  13.812  -7.177  1.00 33.06     0.022 C 
HETATM   14  C6  1LT A1102      -5.831  13.855  -6.667  1.00 32.91     0.037 C 
HETATM   15  H1  1LT A1102      -3.156  17.588  -7.580  1.00  0.00     0.172 HD
BRANCH  12  16
HETATM   16  C8  1LT A1102      -5.891  15.155  -4.480  1.00 36.23     0.238 C 
HETATM   17  N3  1LT A1102      -4.677  15.171  -3.954  1.00 38.59    -0.368 N 
HETATM   18  H31 1LT A1102      -4.560  15.149  -2.951  1.00  0.00     0.159 HD
HETATM   19  H32 1LT A1102      -3.866  15.204  -4.556  1.00  0.00     0.159 HD
HETATM   20  O1  1LT A1102      -6.919  15.148  -3.797  1.00 36.45    -0.271 OA
ENDBRANCH  12  16
ENDBRANCH   2   7
BRANCH   3  21
HETATM   21  C10 1LT A1102      -3.739  23.104  -5.508  1.00 28.09    -0.014 A 
HETATM   22  C11 1LT A1102      -2.862  24.180  -5.584  1.00 28.02     0.032 A 
HETATM   23  C12 1LT A1102      -3.214  25.363  -4.973  1.00 27.11     0.118 A 
HETATM   24  N4  1LT A1102      -4.371  25.550  -4.323  1.00 28.32    -0.264 NA
HETATM   25  C13 1LT A1102      -5.235  24.527  -4.286  1.00 31.46     0.051 A 
HETATM   26  C14 1LT A1102      -4.958  23.278  -4.860  1.00 28.89     0.041 A 
BRANCH  25  27
HETATM   27  C15 1LT A1102      -6.598  24.812  -3.609  1.00 36.92     0.095 C 
HETATM   28  C17 1LT A1102      -6.380  25.472  -2.236  1.00 34.98     0.031 C 
HETATM   29  C16 1LT A1102      -7.416  23.521  -3.438  1.00 37.10     0.031 C 
BRANCH  27  30
HETATM   30  C18 1LT A1102      -7.481  25.830  -4.530  1.00 41.31     0.400 C 
HETATM   31  F2  1LT A1102      -8.669  26.054  -3.972  1.00 40.44    -0.170 F 
HETATM   32  F   1LT A1102      -6.901  27.013  -4.698  1.00 43.09    -0.170 F 
HETATM   33  F1  1LT A1102      -7.695  25.340  -5.746  1.00 42.86    -0.170 F 
ENDBRANCH  27  30
ENDBRANCH  25  27
ENDBRANCH   3  21
TORSDOF 5
