REMARK  11 active torsions:
REMARK  status: ('A' for Active; 'I' for Inactive)
REMARK    1  A    between atoms: O3B_8  and  PG_1 
REMARK    2  A    between atoms: O3A_12  and  PB_5 
REMARK    3  A    between atoms: O3B_8  and  PB_5 
REMARK    4  A    between atoms: O3A_12  and  PA_9 
REMARK    5  A    between atoms: O5'_13  and  PA_9 
REMARK    6  A    between atoms: C5'_14  and  O5'_13 
REMARK    7  A    between atoms: C4'_15  and  C5'_14 
REMARK    8  A    between atoms: C3'_17  and  O3'_18 
REMARK    9  A    between atoms: C2'_19  and  O2'_20 
REMARK   10  A    between atoms: C1'_21  and  N9_22 
REMARK   11  A    between atoms: C6_26  and  N6_27 
ROOT
HETATM    1  C4' ATP E 355      13.746   3.080  -9.008  1.00 15.72     0.180 C 
HETATM    2  O4' ATP E 355      13.620   4.415  -8.458  1.00 30.04    -0.353 OA
HETATM    3  C3' ATP E 355      12.774   2.301  -8.147  1.00  9.26     0.182 C 
HETATM    4  C2' ATP E 355      13.096   2.879  -6.756  1.00  1.00     0.198 C 
HETATM    5  C1' ATP E 355      13.336   4.329  -7.060  1.00 12.71     0.262 C 
ENDROOT
BRANCH   1   6
HETATM    6  C5' ATP E 355      13.463   3.153 -10.504  1.00 58.54     0.216 C 
BRANCH   6   7
HETATM    7  O5' ATP E 355      12.361   4.032 -10.843  1.00 14.92    -0.287 OA
BRANCH   7   8
HETATM    8  PA  ATP E 355      11.300   3.356 -11.822  1.00 19.49     0.417 P 
HETATM    9  O1A ATP E 355      10.078   4.134 -11.982  1.00 13.47    -0.624 OA
HETATM   10  O2A ATP E 355      11.076   1.955 -11.383  1.00 25.00    -0.624 OA
BRANCH   8  11
HETATM   11  O3A ATP E 355      12.089   3.360 -13.220  1.00 21.72    -0.180 OA
BRANCH  11  12
HETATM   12  PB  ATP E 355      11.768   2.596 -14.543  1.00 22.96     0.428 P 
HETATM   13  O1B ATP E 355      10.329   2.714 -14.728  1.00 13.08    -0.624 OA
HETATM   14  O2B ATP E 355      12.651   3.048 -15.654  1.00 19.59    -0.624 OA
BRANCH  12  15
HETATM   15  O3B ATP E 355      12.059   1.100 -14.099  1.00 13.80    -0.173 OA
BRANCH  15  16
HETATM   16  PG  ATP E 355      11.598  -0.384 -14.569  1.00 18.11     0.431 P 
HETATM   17  O1G ATP E 355      12.722  -0.996 -15.292  1.00 17.95    -0.616 OA
HETATM   18  O2G ATP E 355      11.144  -1.229 -13.393  1.00 15.57    -0.616 OA
HETATM   19  O3G ATP E 355      10.483  -0.213 -15.448  1.00  6.59    -0.616 OA
ENDBRANCH  15  16
ENDBRANCH  12  15
ENDBRANCH  11  12
ENDBRANCH   8  11
ENDBRANCH   7   8
ENDBRANCH   6   7
ENDBRANCH   1   6
BRANCH   3  20
HETATM   20  O3' ATP E 355      12.911   0.897  -8.259  1.00 33.78    -0.390 OA
HETATM   21 'HO3 ATP E 355      12.269   0.466  -7.690  1.00  0.00     0.210 HD
ENDBRANCH   3  20
BRANCH   4  22
HETATM   22  O2' ATP E 355      14.242   2.331  -6.130  1.00 48.53    -0.388 OA
HETATM   23 'HO2 ATP E 355      14.088   1.403  -5.936  1.00  0.00     0.210 HD
ENDBRANCH   4  22
BRANCH   5  24
HETATM   24  N9  ATP E 355      12.187   5.212  -6.767  1.00 19.15    -0.294 N 
HETATM   25  C4  ATP E 355      11.793   5.939  -5.664  1.00 37.89     0.167 C 
HETATM   26  N3  ATP E 355      12.536   6.190  -4.551  1.00 18.18    -0.222 NA
HETATM   27  C5  ATP E 355      10.665   6.657  -6.067  1.00 24.00     0.149 C 
HETATM   28  C2  ATP E 355      11.908   7.036  -3.737  1.00 28.79     0.237 C 
HETATM   29  N1  ATP E 355      10.734   7.690  -3.942  1.00 19.73    -0.222 NA
HETATM   30  C6  ATP E 355      10.101   7.569  -5.128  1.00 26.67     0.155 C 
HETATM   31  N7  ATP E 355      10.268   6.243  -7.316  1.00 35.77    -0.236 NA
HETATM   32  C8  ATP E 355      11.215   5.416  -7.698  1.00 45.84     0.214 C 
BRANCH  30  33
HETATM   33  N6  ATP E 355       8.939   8.230  -5.312  1.00 31.35    -0.382 N 
HETATM   34 1HN6 ATP E 355       8.580   8.832  -4.585  1.00  0.00     0.157 HD
HETATM   35 2HN6 ATP E 355       8.429   8.122  -6.177  1.00  0.00     0.157 HD
ENDBRANCH  30  33
ENDBRANCH   5  24
TORSDOF 11
