REMARK  5 active torsions:
REMARK  status: ('A' for Active; 'I' for Inactive)
REMARK    1  A    between atoms: C2_2  and  N1_22 
REMARK       I    between atoms: C3_3  and  N1_22 
REMARK       I    between atoms: C3_3  and  N2_24 
REMARK    2  A    between atoms: C13_7  and  C15_9 
REMARK    3  A    between atoms: C15_9  and  C18_12 
REMARK    4  A    between atoms: C10_17  and  C9_18 
REMARK    5  A    between atoms: C7_25  and  C8_26 
REMARK       I    between atoms: C8_26  and  N3_27 
ROOT
HETATM    1  C1  1LT A1102      -2.783   3.697  21.649  1.00 29.48     0.051 A 
HETATM    2  C2  1LT A1102      -1.926   2.518  19.985  1.00 31.21     0.175 A 
HETATM    3  C9  1LT A1102      -1.441   3.836  21.987  1.00 30.21     0.043 A 
HETATM    4  C   1LT A1102      -3.941   4.264  22.405  1.00 29.25     0.072 C 
HETATM    5  S   1LT A1102      -0.477   3.001  20.792  1.00 30.69    -0.049 SA
HETATM    6  N   1LT A1102      -3.040   2.945  20.521  1.00 31.52    -0.228 NA
ENDROOT
BRANCH   2   7
HETATM    7  N1  1LT A1102      -1.950   1.733  18.848  1.00 32.80    -0.287 N 
HETATM    8  C3  1LT A1102      -0.807   1.262  18.185  1.00 30.89     0.325 C 
HETATM    9  O   1LT A1102       0.319   1.513  18.588  1.00 28.68    -0.247 OA
HETATM   10  N2  1LT A1102      -1.000   0.498  17.050  1.00 31.78    -0.320 N 
HETATM   11  C4  1LT A1102      -2.281   0.109  16.438  1.00 31.75     0.129 C 
HETATM   12  C7  1LT A1102       0.159  -0.037  16.317  1.00 33.94     0.180 C 
HETATM   13  C5  1LT A1102      -1.883  -0.374  15.061  1.00 33.06     0.022 C 
HETATM   14  C6  1LT A1102      -0.473  -0.895  15.210  1.00 32.91     0.037 C 
HETATM   15  H1  1LT A1102      -2.851   1.482  18.468  1.00  0.00     0.172 HD
BRANCH  12  16
HETATM   16  C8  1LT A1102       1.079   1.048  15.752  1.00 36.23     0.238 C 
HETATM   17  O1  1LT A1102       2.301   0.876  15.727  1.00 36.45    -0.271 OA
HETATM   18  N3  1LT A1102       0.502   2.178  15.375  1.00 38.59    -0.368 N 
HETATM   19  H31 1LT A1102       1.065   2.938  15.021  1.00  0.00     0.159 HD
HETATM   20  H32 1LT A1102      -0.500   2.280  15.441  1.00  0.00     0.159 HD
ENDBRANCH  12  16
ENDBRANCH   2   7
BRANCH   3  21
HETATM   21  C10 1LT A1102      -0.709   4.527  23.072  1.00 28.09    -0.014 A 
HETATM   22  C11 1LT A1102      -1.354   5.408  23.933  1.00 28.02     0.032 A 
HETATM   23  C12 1LT A1102      -0.614   6.035  24.912  1.00 27.11     0.118 A 
HETATM   24  N4  1LT A1102       0.697   5.828  25.101  1.00 28.32    -0.264 NA
HETATM   25  C13 1LT A1102       1.309   4.947  24.299  1.00 31.46     0.051 A 
HETATM   26  C14 1LT A1102       0.646   4.275  23.262  1.00 28.89     0.041 A 
BRANCH  25  27
HETATM   27  C15 1LT A1102       2.799   4.666  24.611  1.00 36.92     0.095 C 
HETATM   28  C16 1LT A1102       3.446   3.810  23.510  1.00 37.10     0.031 C 
HETATM   29  C17 1LT A1102       3.570   5.990  24.758  1.00 34.98     0.031 C 
BRANCH  27  30
HETATM   30  C18 1LT A1102       2.933   3.839  26.012  1.00 41.31     0.400 C 
HETATM   31  F1  1LT A1102       2.273   2.687  25.974  1.00 42.86    -0.170 F 
HETATM   32  F2  1LT A1102       4.211   3.562  26.271  1.00 40.44    -0.170 F 
HETATM   33  F   1LT A1102       2.461   4.509  27.057  1.00 43.09    -0.170 F 
ENDBRANCH  27  30
ENDBRANCH  25  27
ENDBRANCH   3  21
TORSDOF 5
