REMARK  5 active torsions:
REMARK  status: ('A' for Active; 'I' for Inactive)
REMARK    1  A    between atoms: C2_2  and  N1_24 
REMARK       I    between atoms: C3_3  and  N2_27 
REMARK       I    between atoms: C3_3  and  N1_24 
REMARK    2  A    between atoms: C13_7  and  C15_9 
REMARK    3  A    between atoms: C15_9  and  C18_12 
REMARK    4  A    between atoms: C10_18  and  C9_19 
REMARK    5  A    between atoms: C7_28  and  C8_29 
REMARK       I    between atoms: C8_29  and  N3_30 
ROOT
HETATM    1  C1  1LT A1102       9.063 -25.298  49.979  1.00 29.48     0.025 A 
HETATM    2  C2  1LT A1102      10.729 -24.609  48.697  1.00 31.21     0.153 A 
HETATM    3  C9  1LT A1102       9.740 -24.545  50.933  1.00 30.21     0.041 A 
HETATM    4  C   1LT A1102       7.807 -26.075  50.206  1.00 29.25     0.070 C 
HETATM    5  S   1LT A1102      11.143 -23.825  50.179  1.00 30.69    -0.051 SA
HETATM    6  N   1LT A1102       9.637 -25.330  48.725  1.00 31.52    -0.339 N 
ATOM      7  HN  1LT A1102       9.262 -25.845  47.929  1.00  0.00     0.168 HD
ENDROOT
BRANCH   2   8
HETATM    8  N1  1LT A1102      11.473 -24.509  47.537  1.00 32.80    -0.289 N 
HETATM    9  C3  1LT A1102      12.634 -23.731  47.405  1.00 30.89     0.325 C 
HETATM   10  N2  1LT A1102      13.258 -23.727  46.172  1.00 31.78    -0.320 N 
HETATM   11  O   1LT A1102      13.082 -23.082  48.338  1.00 28.68    -0.247 OA
HETATM   12  C4  1LT A1102      12.849 -24.449  44.957  1.00 31.75     0.129 C 
HETATM   13  C7  1LT A1102      14.487 -22.941  45.973  1.00 33.94     0.180 C 
HETATM   14  C5  1LT A1102      13.653 -23.784  43.862  1.00 33.06     0.022 C 
HETATM   15  C6  1LT A1102      14.909 -23.282  44.535  1.00 32.91     0.037 C 
ATOM     16  H1  1LT A1102      11.158 -25.036  46.722  1.00  0.00     0.172 HD
BRANCH  13  17
HETATM   17  C8  1LT A1102      14.291 -21.437  46.177  1.00 36.23     0.238 C 
HETATM   18  O1  1LT A1102      15.183 -20.758  46.692  1.00 36.45    -0.271 OA
HETATM   19  N3  1LT A1102      13.110 -20.942  45.843  1.00 38.59    -0.368 N 
ATOM     20  H32 1LT A1102      12.372 -21.503  45.417  1.00  0.00     0.159 HD
ATOM     21  H31 1LT A1102      12.979 -19.940  45.979  1.00  0.00     0.159 HD
ENDBRANCH  13  17
ENDBRANCH   2   8
BRANCH   3  22
HETATM   22  C10 1LT A1102       9.512 -24.230  52.361  1.00 28.09    -0.014 A 
HETATM   23  C11 1LT A1102       8.316 -24.553  52.992  1.00 28.02     0.030 A 
HETATM   24  C12 1LT A1102       8.158 -24.217  54.318  1.00 27.11     0.089 A 
HETATM   25  N4  1LT A1102       9.103 -23.611  55.051  1.00 28.32    -0.368 N 
HETATM   26  C13 1LT A1102      10.271 -23.338  54.455  1.00 31.46     0.026 A 
ATOM     27  H4  1LT A1102       8.938 -23.367  56.028  1.00  0.00     0.165 HD
HETATM   28  C14 1LT A1102      10.520 -23.624  53.104  1.00 28.89     0.039 A 
BRANCH  26  29
HETATM   29  C15 1LT A1102      11.369 -22.727  55.359  1.00 36.92     0.092 C 
HETATM   30  C17 1LT A1102      10.800 -21.537  56.153  1.00 34.98     0.031 C 
HETATM   31  C16 1LT A1102      12.579 -22.265  54.531  1.00 37.10     0.031 C 
BRANCH  29  32
HETATM   32  C18 1LT A1102      11.904 -23.841  56.424  1.00 41.31     0.400 C 
HETATM   33  F2  1LT A1102      12.874 -23.334  57.184  1.00 40.44    -0.170 F 
HETATM   34  F1  1LT A1102      12.394 -24.915  55.815  1.00 42.86    -0.170 F 
HETATM   35  F   1LT A1102      10.954 -24.274  57.244  1.00 43.09    -0.170 F 
ENDBRANCH  29  32
ENDBRANCH  26  29
ENDBRANCH   3  22
TORSDOF 5
