REMARK  5 active torsions:
REMARK  status: ('A' for Active; 'I' for Inactive)
REMARK    1  A    between atoms: C2_2  and  N1_22 
REMARK       I    between atoms: C3_3  and  N1_22 
REMARK       I    between atoms: C3_3  and  N2_24 
REMARK    2  A    between atoms: C13_7  and  C15_9 
REMARK    3  A    between atoms: C15_9  and  C18_12 
REMARK    4  A    between atoms: C10_17  and  C9_18 
REMARK    5  A    between atoms: C7_25  and  C8_26 
REMARK       I    between atoms: C8_26  and  N3_27 
ROOT
HETATM    1  C1  1LT A1102      -9.481  21.822 -11.457  1.00 29.48     0.051 A 
HETATM    2  C2  1LT A1102      -9.708  20.836  -9.490  1.00 31.21     0.175 A 
HETATM    3  C9  1LT A1102      -9.218  22.929 -10.656  1.00 30.21     0.043 A 
HETATM    4  C   1LT A1102      -9.506  21.808 -12.951  1.00 29.25     0.072 C 
HETATM    5  S   1LT A1102      -9.300  22.436  -8.981  1.00 30.69    -0.049 SA
HETATM    6  N   1LT A1102      -9.763  20.651 -10.784  1.00 31.52    -0.228 NA
ENDROOT
BRANCH   2   7
HETATM    7  N1  1LT A1102      -9.967  19.793  -8.621  1.00 32.80    -0.287 N 
HETATM    8  C3  1LT A1102      -9.896  19.889  -7.223  1.00 30.89     0.325 C 
HETATM    9  O   1LT A1102      -9.603  20.936  -6.665  1.00 28.68    -0.247 OA
HETATM   10  N2  1LT A1102     -10.173  18.749  -6.493  1.00 31.78    -0.320 N 
HETATM   11  C4  1LT A1102     -10.539  17.421  -7.009  1.00 31.75     0.129 C 
HETATM   12  C7  1LT A1102     -10.128  18.789  -5.022  1.00 33.94     0.180 C 
HETATM   13  C5  1LT A1102     -10.348  16.512  -5.815  1.00 33.06     0.022 C 
HETATM   14  C6  1LT A1102     -10.589  17.384  -4.604  1.00 32.91     0.037 C 
HETATM   15  H1  1LT A1102     -10.225  18.901  -9.019  1.00  0.00     0.172 HD
BRANCH  12  16
HETATM   16  C8  1LT A1102      -8.747  19.135  -4.461  1.00 36.23     0.238 C 
HETATM   17  O1  1LT A1102      -8.644  19.827  -3.445  1.00 36.45    -0.271 OA
HETATM   18  N3  1LT A1102      -7.702  18.719  -5.159  1.00 38.59    -0.368 N 
HETATM   19  H31 1LT A1102      -7.839  18.177  -6.000  1.00  0.00     0.159 HD
HETATM   20  H32 1LT A1102      -6.767  18.943  -4.850  1.00  0.00     0.159 HD
ENDBRANCH  12  16
ENDBRANCH   2   7
BRANCH   3  21
HETATM   21  C10 1LT A1102      -8.879  24.345 -10.920  1.00 28.09    -0.014 A 
HETATM   22  C14 1LT A1102      -8.905  25.268  -9.879  1.00 28.89     0.041 A 
HETATM   23  C13 1LT A1102      -8.578  26.602 -10.163  1.00 31.46     0.051 A 
HETATM   24  N4  1LT A1102      -8.229  27.018 -11.388  1.00 28.32    -0.264 NA
HETATM   25  C12 1LT A1102      -8.235  26.113 -12.377  1.00 27.11     0.118 A 
HETATM   26  C11 1LT A1102      -8.559  24.787 -12.199  1.00 28.02     0.032 A 
BRANCH  23  27
HETATM   27  C15 1LT A1102      -8.652  27.695  -9.069  1.00 36.92     0.095 C 
HETATM   28  C16 1LT A1102      -8.853  27.076  -7.677  1.00 37.10     0.031 C 
HETATM   29  C17 1LT A1102      -7.367  28.542  -9.078  1.00 34.98     0.031 C 
BRANCH  27  30
HETATM   30  C18 1LT A1102      -9.918  28.685  -9.349  1.00 41.31     0.400 C 
HETATM   31  F2  1LT A1102     -10.010  29.609  -8.393  1.00 40.44    -0.170 F 
HETATM   32  F1  1LT A1102     -11.070  28.023  -9.379  1.00 42.86    -0.170 F 
HETATM   33  F   1LT A1102      -9.826  29.331 -10.506  1.00 43.09    -0.170 F 
ENDBRANCH  27  30
ENDBRANCH  23  27
ENDBRANCH   3  21
TORSDOF 5
