REMARK  11 active torsions:
REMARK  status: ('A' for Active; 'I' for Inactive)
REMARK    1  A    between atoms: O3B_8  and  PG_1 
REMARK    2  A    between atoms: O3A_12  and  PB_5 
REMARK    3  A    between atoms: O3B_8  and  PB_5 
REMARK    4  A    between atoms: O3A_12  and  PA_9 
REMARK    5  A    between atoms: O5'_13  and  PA_9 
REMARK    6  A    between atoms: C5'_14  and  O5'_13 
REMARK    7  A    between atoms: C4'_15  and  C5'_14 
REMARK    8  A    between atoms: C3'_17  and  O3'_18 
REMARK    9  A    between atoms: C2'_19  and  O2'_20 
REMARK   10  A    between atoms: C1'_21  and  N9_22 
REMARK   11  A    between atoms: C6_26  and  N6_27 
ROOT
HETATM    1  C4' ATP E 355       4.399  -5.051 -11.570  1.00 15.72     0.180 C 
HETATM    2  O4' ATP E 355       4.902  -3.701 -11.738  1.00 30.04    -0.353 OA
HETATM    3  C3' ATP E 355       4.199  -5.117 -10.070  1.00  9.26     0.182 C 
HETATM    4  C2' ATP E 355       5.484  -4.425  -9.577  1.00  1.00     0.198 C 
HETATM    5  C1' ATP E 355       5.665  -3.331 -10.588  1.00 12.71     0.262 C 
ENDROOT
BRANCH   1   6
HETATM    6  C5' ATP E 355       3.169  -5.213 -12.454  1.00 58.54     0.216 C 
BRANCH   6   7
HETATM    7  O5' ATP E 355       2.298  -4.054 -12.456  1.00 14.92    -0.287 OA
BRANCH   7   8
HETATM    8  PA  ATP E 355       0.768  -4.421 -12.200  1.00 19.49     0.417 P 
HETATM    9  O1A ATP E 355      -0.077  -3.258 -11.965  1.00 13.47    -0.624 OA
HETATM   10  O2A ATP E 355       0.700  -5.449 -11.129  1.00 25.00    -0.624 OA
BRANCH   8  11
HETATM   11  O3A ATP E 355       0.345  -5.079 -13.602  1.00 21.72    -0.180 OA
BRANCH  11  12
HETATM   12  PB  ATP E 355      -0.920  -5.918 -13.963  1.00 22.96     0.428 P 
HETATM   13  O1B ATP E 355      -2.038  -5.245 -13.317  1.00 13.08    -0.624 OA
HETATM   14  O2B ATP E 355      -1.008  -6.158 -15.431  1.00 19.59    -0.624 OA
BRANCH  12  15
HETATM   15  O3B ATP E 355      -0.639  -7.247 -13.141  1.00 13.80    -0.173 OA
BRANCH  15  16
HETATM   16  PG  ATP E 355      -1.520  -8.457 -12.513  1.00 18.11     0.431 P 
HETATM   17  O1G ATP E 355      -1.333  -9.639 -13.366  1.00 17.95    -0.616 OA
HETATM   18  O2G ATP E 355      -1.149  -8.729 -11.067  1.00 15.57    -0.616 OA
HETATM   19  O3G ATP E 355      -2.887  -8.038 -12.547  1.00  6.59    -0.616 OA
ENDBRANCH  15  16
ENDBRANCH  12  15
ENDBRANCH  11  12
ENDBRANCH   8  11
ENDBRANCH   7   8
ENDBRANCH   6   7
ENDBRANCH   1   6
BRANCH   3  20
HETATM   20  O3' ATP E 355       3.999  -6.429  -9.579  1.00 33.78    -0.390 OA
HETATM   21 'HO3 ATP E 355       3.880  -6.400  -8.627  1.00  0.00     0.210 HD
ENDBRANCH   3  20
BRANCH   4  22
HETATM   22  O2' ATP E 355       6.638  -5.247  -9.559  1.00 48.53    -0.388 OA
HETATM   23 'HO2 ATP E 355       6.522  -5.947  -8.913  1.00  0.00     0.210 HD
ENDBRANCH   4  22
BRANCH   5  24
HETATM   24  N9  ATP E 355       5.203  -2.001 -10.137  1.00 19.15    -0.294 N 
HETATM   25  C4  ATP E 355       5.810  -0.941  -9.497  1.00 37.89     0.167 C 
HETATM   26  N3  ATP E 355       7.145  -0.779  -9.285  1.00 18.18    -0.222 NA
HETATM   27  C5  ATP E 355       4.851   0.074  -9.453  1.00 24.00     0.149 C 
HETATM   28  C2  ATP E 355       7.404   0.418  -8.761  1.00 28.79     0.237 C 
HETATM   29  N1  ATP E 355       6.542   1.442  -8.527  1.00 19.73    -0.222 NA
HETATM   30  C6  ATP E 355       5.253   1.330  -8.913  1.00 26.67     0.155 C 
HETATM   31  N7  ATP E 355       3.638  -0.409  -9.882  1.00 35.77    -0.236 NA
HETATM   32  C8  ATP E 355       3.905  -1.625 -10.303  1.00 45.84     0.214 C 
BRANCH  30  33
HETATM   33  N6  ATP E 355       4.415   2.359  -8.674  1.00 31.35    -0.382 N 
HETATM   34 1HN6 ATP E 355       3.437   2.283  -8.918  1.00  0.00     0.157 HD
HETATM   35 2HN6 ATP E 355       4.764   3.208  -8.252  1.00  0.00     0.157 HD
ENDBRANCH  30  33
ENDBRANCH   5  24
TORSDOF 11
